**************************************************
* OpenRAM generated memory.
* Words: 16
* Data bits: 2
* Banks: 1
* Column mux: 1:1
* Trimmed: False
* LVS: False
**************************************************

*********************** "cell_1rw" ******************************
.SUBCKT replica_cell_1rw bl br wl vdd gnd
* SPICE3 file created from cell_1rw.ext - technology: scmos

* Inverter 1
M1000 Q vdd vdd vdd p w=0.6u l=0.8u
M1002 Q vdd gnd gnd n w=1.6u l=0.4u

* Inverter 2
M1001 vdd Q vdd vdd p w=0.6u l=0.8u
M1003 gnd Q vdd gnd n w=1.6u l=0.4u

* Access transistors
M1004 Q wl bl gnd n w=0.8u l=0.4u
M1005 vdd wl br gnd n w=0.8u l=0.4u

.ENDS

.SUBCKT sram_2_16_1_scn4m_subm_replica_column
+ bl_0_0 br_0_0 wl_0_0 wl_0_1 wl_0_2 wl_0_3 wl_0_4 wl_0_5 wl_0_6 wl_0_7
+ wl_0_8 wl_0_9 wl_0_10 wl_0_11 wl_0_12 wl_0_13 wl_0_14 wl_0_15 wl_0_16
+ vdd gnd
* OUTPUT: bl_0_0 
* OUTPUT: br_0_0 
* INPUT : wl_0_0 
* INPUT : wl_0_1 
* INPUT : wl_0_2 
* INPUT : wl_0_3 
* INPUT : wl_0_4 
* INPUT : wl_0_5 
* INPUT : wl_0_6 
* INPUT : wl_0_7 
* INPUT : wl_0_8 
* INPUT : wl_0_9 
* INPUT : wl_0_10 
* INPUT : wl_0_11 
* INPUT : wl_0_12 
* INPUT : wl_0_13 
* INPUT : wl_0_14 
* INPUT : wl_0_15 
* INPUT : wl_0_16 
* POWER : vdd 
* GROUND: gnd 
Xrbc_0
+ bl_0_0 br_0_0 wl_0_0 vdd gnd
+ replica_cell_1rw
Xrbc_1
+ bl_0_0 br_0_0 wl_0_1 vdd gnd
+ replica_cell_1rw
Xrbc_2
+ bl_0_0 br_0_0 wl_0_2 vdd gnd
+ replica_cell_1rw
Xrbc_3
+ bl_0_0 br_0_0 wl_0_3 vdd gnd
+ replica_cell_1rw
Xrbc_4
+ bl_0_0 br_0_0 wl_0_4 vdd gnd
+ replica_cell_1rw
Xrbc_5
+ bl_0_0 br_0_0 wl_0_5 vdd gnd
+ replica_cell_1rw
Xrbc_6
+ bl_0_0 br_0_0 wl_0_6 vdd gnd
+ replica_cell_1rw
Xrbc_7
+ bl_0_0 br_0_0 wl_0_7 vdd gnd
+ replica_cell_1rw
Xrbc_8
+ bl_0_0 br_0_0 wl_0_8 vdd gnd
+ replica_cell_1rw
Xrbc_9
+ bl_0_0 br_0_0 wl_0_9 vdd gnd
+ replica_cell_1rw
Xrbc_10
+ bl_0_0 br_0_0 wl_0_10 vdd gnd
+ replica_cell_1rw
Xrbc_11
+ bl_0_0 br_0_0 wl_0_11 vdd gnd
+ replica_cell_1rw
Xrbc_12
+ bl_0_0 br_0_0 wl_0_12 vdd gnd
+ replica_cell_1rw
Xrbc_13
+ bl_0_0 br_0_0 wl_0_13 vdd gnd
+ replica_cell_1rw
Xrbc_14
+ bl_0_0 br_0_0 wl_0_14 vdd gnd
+ replica_cell_1rw
Xrbc_15
+ bl_0_0 br_0_0 wl_0_15 vdd gnd
+ replica_cell_1rw
Xrbc_16
+ bl_0_0 br_0_0 wl_0_16 vdd gnd
+ replica_cell_1rw
.ENDS sram_2_16_1_scn4m_subm_replica_column

*********************** "cell_1rw" ******************************
.SUBCKT cell_1rw bl br wl vdd gnd
* SPICE3 file created from cell_1rw.ext - technology: scmos

* Inverter 1
M1000 Q Q_bar vdd vdd p w=0.6u l=0.8u
M1002 Q Q_bar gnd gnd n w=1.6u l=0.4u

* Inverter 2
M1001 vdd Q Q_bar vdd p w=0.6u l=0.8u
M1003 gnd Q Q_bar gnd n w=1.6u l=0.4u

* Access transistors
M1004 Q wl bl gnd n w=0.8u l=0.4u
M1005 Q_bar wl br gnd n w=0.8u l=0.4u

.ENDS

.SUBCKT sram_2_16_1_scn4m_subm_bitcell_array
+ bl_0_0 br_0_0 bl_0_1 br_0_1 wl_0_0 wl_0_1 wl_0_2 wl_0_3 wl_0_4 wl_0_5
+ wl_0_6 wl_0_7 wl_0_8 wl_0_9 wl_0_10 wl_0_11 wl_0_12 wl_0_13 wl_0_14
+ wl_0_15 vdd gnd
* INOUT : bl_0_0 
* INOUT : br_0_0 
* INOUT : bl_0_1 
* INOUT : br_0_1 
* INPUT : wl_0_0 
* INPUT : wl_0_1 
* INPUT : wl_0_2 
* INPUT : wl_0_3 
* INPUT : wl_0_4 
* INPUT : wl_0_5 
* INPUT : wl_0_6 
* INPUT : wl_0_7 
* INPUT : wl_0_8 
* INPUT : wl_0_9 
* INPUT : wl_0_10 
* INPUT : wl_0_11 
* INPUT : wl_0_12 
* INPUT : wl_0_13 
* INPUT : wl_0_14 
* INPUT : wl_0_15 
* POWER : vdd 
* GROUND: gnd 
* rows: 16 cols: 2
Xbit_r0_c0
+ bl_0_0 br_0_0 wl_0_0 vdd gnd
+ cell_1rw
Xbit_r1_c0
+ bl_0_0 br_0_0 wl_0_1 vdd gnd
+ cell_1rw
Xbit_r2_c0
+ bl_0_0 br_0_0 wl_0_2 vdd gnd
+ cell_1rw
Xbit_r3_c0
+ bl_0_0 br_0_0 wl_0_3 vdd gnd
+ cell_1rw
Xbit_r4_c0
+ bl_0_0 br_0_0 wl_0_4 vdd gnd
+ cell_1rw
Xbit_r5_c0
+ bl_0_0 br_0_0 wl_0_5 vdd gnd
+ cell_1rw
Xbit_r6_c0
+ bl_0_0 br_0_0 wl_0_6 vdd gnd
+ cell_1rw
Xbit_r7_c0
+ bl_0_0 br_0_0 wl_0_7 vdd gnd
+ cell_1rw
Xbit_r8_c0
+ bl_0_0 br_0_0 wl_0_8 vdd gnd
+ cell_1rw
Xbit_r9_c0
+ bl_0_0 br_0_0 wl_0_9 vdd gnd
+ cell_1rw
Xbit_r10_c0
+ bl_0_0 br_0_0 wl_0_10 vdd gnd
+ cell_1rw
Xbit_r11_c0
+ bl_0_0 br_0_0 wl_0_11 vdd gnd
+ cell_1rw
Xbit_r12_c0
+ bl_0_0 br_0_0 wl_0_12 vdd gnd
+ cell_1rw
Xbit_r13_c0
+ bl_0_0 br_0_0 wl_0_13 vdd gnd
+ cell_1rw
Xbit_r14_c0
+ bl_0_0 br_0_0 wl_0_14 vdd gnd
+ cell_1rw
Xbit_r15_c0
+ bl_0_0 br_0_0 wl_0_15 vdd gnd
+ cell_1rw
Xbit_r0_c1
+ bl_0_1 br_0_1 wl_0_0 vdd gnd
+ cell_1rw
Xbit_r1_c1
+ bl_0_1 br_0_1 wl_0_1 vdd gnd
+ cell_1rw
Xbit_r2_c1
+ bl_0_1 br_0_1 wl_0_2 vdd gnd
+ cell_1rw
Xbit_r3_c1
+ bl_0_1 br_0_1 wl_0_3 vdd gnd
+ cell_1rw
Xbit_r4_c1
+ bl_0_1 br_0_1 wl_0_4 vdd gnd
+ cell_1rw
Xbit_r5_c1
+ bl_0_1 br_0_1 wl_0_5 vdd gnd
+ cell_1rw
Xbit_r6_c1
+ bl_0_1 br_0_1 wl_0_6 vdd gnd
+ cell_1rw
Xbit_r7_c1
+ bl_0_1 br_0_1 wl_0_7 vdd gnd
+ cell_1rw
Xbit_r8_c1
+ bl_0_1 br_0_1 wl_0_8 vdd gnd
+ cell_1rw
Xbit_r9_c1
+ bl_0_1 br_0_1 wl_0_9 vdd gnd
+ cell_1rw
Xbit_r10_c1
+ bl_0_1 br_0_1 wl_0_10 vdd gnd
+ cell_1rw
Xbit_r11_c1
+ bl_0_1 br_0_1 wl_0_11 vdd gnd
+ cell_1rw
Xbit_r12_c1
+ bl_0_1 br_0_1 wl_0_12 vdd gnd
+ cell_1rw
Xbit_r13_c1
+ bl_0_1 br_0_1 wl_0_13 vdd gnd
+ cell_1rw
Xbit_r14_c1
+ bl_0_1 br_0_1 wl_0_14 vdd gnd
+ cell_1rw
Xbit_r15_c1
+ bl_0_1 br_0_1 wl_0_15 vdd gnd
+ cell_1rw
.ENDS sram_2_16_1_scn4m_subm_bitcell_array

*********************** "dummy_cell_1rw" ******************************
.SUBCKT dummy_cell_1rw bl br wl vdd gnd

* Inverter 1
M1000 Q Q_bar vdd vdd p w=0.6u l=0.8u
M1002 Q Q_bar gnd gnd n w=1.6u l=0.4u

* Inverter 2
M1001 vdd Q Q_bar vdd p w=0.6u l=0.8u
M1003 gnd Q Q_bar gnd n w=1.6u l=0.4u

* Access transistors
M1004 Q wl bl_noconn gnd n w=0.8u l=0.4u
M1005 Q_bar wl br_noconn gnd n w=0.8u l=0.4u

.ENDS

.SUBCKT sram_2_16_1_scn4m_subm_dummy_array
+ bl_0_0 br_0_0 bl_0_1 br_0_1 wl_0_0 vdd gnd
* INOUT : bl_0_0 
* INOUT : br_0_0 
* INOUT : bl_0_1 
* INOUT : br_0_1 
* INPUT : wl_0_0 
* POWER : vdd 
* GROUND: gnd 
Xbit_r0_c0
+ bl_0_0 br_0_0 wl_0_0 vdd gnd
+ dummy_cell_1rw
Xbit_r0_c1
+ bl_0_1 br_0_1 wl_0_0 vdd gnd
+ dummy_cell_1rw
.ENDS sram_2_16_1_scn4m_subm_dummy_array

.SUBCKT sram_2_16_1_scn4m_subm_replica_bitcell_array
+ rbl_bl_0_0 rbl_br_0_0 bl_0_0 br_0_0 bl_0_1 br_0_1 rbl_wl_0_0 wl_0_0
+ wl_0_1 wl_0_2 wl_0_3 wl_0_4 wl_0_5 wl_0_6 wl_0_7 wl_0_8 wl_0_9 wl_0_10
+ wl_0_11 wl_0_12 wl_0_13 wl_0_14 wl_0_15 vdd gnd
* INOUT : rbl_bl_0_0 
* INOUT : rbl_br_0_0 
* INOUT : bl_0_0 
* INOUT : br_0_0 
* INOUT : bl_0_1 
* INOUT : br_0_1 
* INPUT : rbl_wl_0_0 
* INPUT : wl_0_0 
* INPUT : wl_0_1 
* INPUT : wl_0_2 
* INPUT : wl_0_3 
* INPUT : wl_0_4 
* INPUT : wl_0_5 
* INPUT : wl_0_6 
* INPUT : wl_0_7 
* INPUT : wl_0_8 
* INPUT : wl_0_9 
* INPUT : wl_0_10 
* INPUT : wl_0_11 
* INPUT : wl_0_12 
* INPUT : wl_0_13 
* INPUT : wl_0_14 
* INPUT : wl_0_15 
* POWER : vdd 
* GROUND: gnd 
* rbl: [1, 0] left_rbl: [0] right_rbl: []
Xbitcell_array
+ bl_0_0 br_0_0 bl_0_1 br_0_1 wl_0_0 wl_0_1 wl_0_2 wl_0_3 wl_0_4 wl_0_5
+ wl_0_6 wl_0_7 wl_0_8 wl_0_9 wl_0_10 wl_0_11 wl_0_12 wl_0_13 wl_0_14
+ wl_0_15 vdd gnd
+ sram_2_16_1_scn4m_subm_bitcell_array
Xreplica_col_0
+ rbl_bl_0_0 rbl_br_0_0 rbl_wl_0_0 wl_0_0 wl_0_1 wl_0_2 wl_0_3 wl_0_4
+ wl_0_5 wl_0_6 wl_0_7 wl_0_8 wl_0_9 wl_0_10 wl_0_11 wl_0_12 wl_0_13
+ wl_0_14 wl_0_15 vdd gnd
+ sram_2_16_1_scn4m_subm_replica_column
Xdummy_row_0
+ bl_0_0 br_0_0 bl_0_1 br_0_1 rbl_wl_0_0 vdd gnd
+ sram_2_16_1_scn4m_subm_dummy_array
.ENDS sram_2_16_1_scn4m_subm_replica_bitcell_array

.SUBCKT sram_2_16_1_scn4m_subm_dummy_array_2
+ bl_0_0 br_0_0 wl_0_0 wl_0_1 wl_0_2 wl_0_3 wl_0_4 wl_0_5 wl_0_6 wl_0_7
+ wl_0_8 wl_0_9 wl_0_10 wl_0_11 wl_0_12 wl_0_13 wl_0_14 wl_0_15 wl_0_16
+ wl_0_17 wl_0_18 vdd gnd
* INOUT : bl_0_0 
* INOUT : br_0_0 
* INPUT : wl_0_0 
* INPUT : wl_0_1 
* INPUT : wl_0_2 
* INPUT : wl_0_3 
* INPUT : wl_0_4 
* INPUT : wl_0_5 
* INPUT : wl_0_6 
* INPUT : wl_0_7 
* INPUT : wl_0_8 
* INPUT : wl_0_9 
* INPUT : wl_0_10 
* INPUT : wl_0_11 
* INPUT : wl_0_12 
* INPUT : wl_0_13 
* INPUT : wl_0_14 
* INPUT : wl_0_15 
* INPUT : wl_0_16 
* INPUT : wl_0_17 
* INPUT : wl_0_18 
* POWER : vdd 
* GROUND: gnd 
Xbit_r0_c0
+ bl_0_0 br_0_0 wl_0_0 vdd gnd
+ dummy_cell_1rw
Xbit_r1_c0
+ bl_0_0 br_0_0 wl_0_1 vdd gnd
+ dummy_cell_1rw
Xbit_r2_c0
+ bl_0_0 br_0_0 wl_0_2 vdd gnd
+ dummy_cell_1rw
Xbit_r3_c0
+ bl_0_0 br_0_0 wl_0_3 vdd gnd
+ dummy_cell_1rw
Xbit_r4_c0
+ bl_0_0 br_0_0 wl_0_4 vdd gnd
+ dummy_cell_1rw
Xbit_r5_c0
+ bl_0_0 br_0_0 wl_0_5 vdd gnd
+ dummy_cell_1rw
Xbit_r6_c0
+ bl_0_0 br_0_0 wl_0_6 vdd gnd
+ dummy_cell_1rw
Xbit_r7_c0
+ bl_0_0 br_0_0 wl_0_7 vdd gnd
+ dummy_cell_1rw
Xbit_r8_c0
+ bl_0_0 br_0_0 wl_0_8 vdd gnd
+ dummy_cell_1rw
Xbit_r9_c0
+ bl_0_0 br_0_0 wl_0_9 vdd gnd
+ dummy_cell_1rw
Xbit_r10_c0
+ bl_0_0 br_0_0 wl_0_10 vdd gnd
+ dummy_cell_1rw
Xbit_r11_c0
+ bl_0_0 br_0_0 wl_0_11 vdd gnd
+ dummy_cell_1rw
Xbit_r12_c0
+ bl_0_0 br_0_0 wl_0_12 vdd gnd
+ dummy_cell_1rw
Xbit_r13_c0
+ bl_0_0 br_0_0 wl_0_13 vdd gnd
+ dummy_cell_1rw
Xbit_r14_c0
+ bl_0_0 br_0_0 wl_0_14 vdd gnd
+ dummy_cell_1rw
Xbit_r15_c0
+ bl_0_0 br_0_0 wl_0_15 vdd gnd
+ dummy_cell_1rw
Xbit_r16_c0
+ bl_0_0 br_0_0 wl_0_16 vdd gnd
+ dummy_cell_1rw
Xbit_r17_c0
+ bl_0_0 br_0_0 wl_0_17 vdd gnd
+ dummy_cell_1rw
Xbit_r18_c0
+ bl_0_0 br_0_0 wl_0_18 vdd gnd
+ dummy_cell_1rw
.ENDS sram_2_16_1_scn4m_subm_dummy_array_2

.SUBCKT sram_2_16_1_scn4m_subm_dummy_array_0
+ bl_0_0 br_0_0 bl_0_1 br_0_1 bl_0_2 br_0_2 wl_0_0 vdd gnd
* INOUT : bl_0_0 
* INOUT : br_0_0 
* INOUT : bl_0_1 
* INOUT : br_0_1 
* INOUT : bl_0_2 
* INOUT : br_0_2 
* INPUT : wl_0_0 
* POWER : vdd 
* GROUND: gnd 
Xbit_r0_c0
+ bl_0_0 br_0_0 wl_0_0 vdd gnd
+ dummy_cell_1rw
Xbit_r0_c1
+ bl_0_1 br_0_1 wl_0_0 vdd gnd
+ dummy_cell_1rw
Xbit_r0_c2
+ bl_0_2 br_0_2 wl_0_0 vdd gnd
+ dummy_cell_1rw
.ENDS sram_2_16_1_scn4m_subm_dummy_array_0

.SUBCKT sram_2_16_1_scn4m_subm_dummy_array_1
+ bl_0_0 br_0_0 bl_0_1 br_0_1 bl_0_2 br_0_2 wl_0_0 vdd gnd
* INOUT : bl_0_0 
* INOUT : br_0_0 
* INOUT : bl_0_1 
* INOUT : br_0_1 
* INOUT : bl_0_2 
* INOUT : br_0_2 
* INPUT : wl_0_0 
* POWER : vdd 
* GROUND: gnd 
Xbit_r0_c0
+ bl_0_0 br_0_0 wl_0_0 vdd gnd
+ dummy_cell_1rw
Xbit_r0_c1
+ bl_0_1 br_0_1 wl_0_0 vdd gnd
+ dummy_cell_1rw
Xbit_r0_c2
+ bl_0_2 br_0_2 wl_0_0 vdd gnd
+ dummy_cell_1rw
.ENDS sram_2_16_1_scn4m_subm_dummy_array_1

.SUBCKT sram_2_16_1_scn4m_subm_dummy_array_3
+ bl_0_0 br_0_0 wl_0_0 wl_0_1 wl_0_2 wl_0_3 wl_0_4 wl_0_5 wl_0_6 wl_0_7
+ wl_0_8 wl_0_9 wl_0_10 wl_0_11 wl_0_12 wl_0_13 wl_0_14 wl_0_15 wl_0_16
+ wl_0_17 wl_0_18 vdd gnd
* INOUT : bl_0_0 
* INOUT : br_0_0 
* INPUT : wl_0_0 
* INPUT : wl_0_1 
* INPUT : wl_0_2 
* INPUT : wl_0_3 
* INPUT : wl_0_4 
* INPUT : wl_0_5 
* INPUT : wl_0_6 
* INPUT : wl_0_7 
* INPUT : wl_0_8 
* INPUT : wl_0_9 
* INPUT : wl_0_10 
* INPUT : wl_0_11 
* INPUT : wl_0_12 
* INPUT : wl_0_13 
* INPUT : wl_0_14 
* INPUT : wl_0_15 
* INPUT : wl_0_16 
* INPUT : wl_0_17 
* INPUT : wl_0_18 
* POWER : vdd 
* GROUND: gnd 
Xbit_r0_c0
+ bl_0_0 br_0_0 wl_0_0 vdd gnd
+ dummy_cell_1rw
Xbit_r1_c0
+ bl_0_0 br_0_0 wl_0_1 vdd gnd
+ dummy_cell_1rw
Xbit_r2_c0
+ bl_0_0 br_0_0 wl_0_2 vdd gnd
+ dummy_cell_1rw
Xbit_r3_c0
+ bl_0_0 br_0_0 wl_0_3 vdd gnd
+ dummy_cell_1rw
Xbit_r4_c0
+ bl_0_0 br_0_0 wl_0_4 vdd gnd
+ dummy_cell_1rw
Xbit_r5_c0
+ bl_0_0 br_0_0 wl_0_5 vdd gnd
+ dummy_cell_1rw
Xbit_r6_c0
+ bl_0_0 br_0_0 wl_0_6 vdd gnd
+ dummy_cell_1rw
Xbit_r7_c0
+ bl_0_0 br_0_0 wl_0_7 vdd gnd
+ dummy_cell_1rw
Xbit_r8_c0
+ bl_0_0 br_0_0 wl_0_8 vdd gnd
+ dummy_cell_1rw
Xbit_r9_c0
+ bl_0_0 br_0_0 wl_0_9 vdd gnd
+ dummy_cell_1rw
Xbit_r10_c0
+ bl_0_0 br_0_0 wl_0_10 vdd gnd
+ dummy_cell_1rw
Xbit_r11_c0
+ bl_0_0 br_0_0 wl_0_11 vdd gnd
+ dummy_cell_1rw
Xbit_r12_c0
+ bl_0_0 br_0_0 wl_0_12 vdd gnd
+ dummy_cell_1rw
Xbit_r13_c0
+ bl_0_0 br_0_0 wl_0_13 vdd gnd
+ dummy_cell_1rw
Xbit_r14_c0
+ bl_0_0 br_0_0 wl_0_14 vdd gnd
+ dummy_cell_1rw
Xbit_r15_c0
+ bl_0_0 br_0_0 wl_0_15 vdd gnd
+ dummy_cell_1rw
Xbit_r16_c0
+ bl_0_0 br_0_0 wl_0_16 vdd gnd
+ dummy_cell_1rw
Xbit_r17_c0
+ bl_0_0 br_0_0 wl_0_17 vdd gnd
+ dummy_cell_1rw
Xbit_r18_c0
+ bl_0_0 br_0_0 wl_0_18 vdd gnd
+ dummy_cell_1rw
.ENDS sram_2_16_1_scn4m_subm_dummy_array_3

.SUBCKT sram_2_16_1_scn4m_subm_capped_replica_bitcell_array
+ rbl_bl_0_0 rbl_br_0_0 bl_0_0 br_0_0 bl_0_1 br_0_1 rbl_wl_0_0 wl_0_0
+ wl_0_1 wl_0_2 wl_0_3 wl_0_4 wl_0_5 wl_0_6 wl_0_7 wl_0_8 wl_0_9 wl_0_10
+ wl_0_11 wl_0_12 wl_0_13 wl_0_14 wl_0_15 vdd gnd
* INOUT : rbl_bl_0_0 
* INOUT : rbl_br_0_0 
* INOUT : bl_0_0 
* INOUT : br_0_0 
* INOUT : bl_0_1 
* INOUT : br_0_1 
* INPUT : rbl_wl_0_0 
* INPUT : wl_0_0 
* INPUT : wl_0_1 
* INPUT : wl_0_2 
* INPUT : wl_0_3 
* INPUT : wl_0_4 
* INPUT : wl_0_5 
* INPUT : wl_0_6 
* INPUT : wl_0_7 
* INPUT : wl_0_8 
* INPUT : wl_0_9 
* INPUT : wl_0_10 
* INPUT : wl_0_11 
* INPUT : wl_0_12 
* INPUT : wl_0_13 
* INPUT : wl_0_14 
* INPUT : wl_0_15 
* POWER : vdd 
* GROUND: gnd 
* rbl: [1, 0] left_rbl: [0] right_rbl: []
Xreplica_bitcell_array
+ rbl_bl_0_0 rbl_br_0_0 bl_0_0 br_0_0 bl_0_1 br_0_1 rbl_wl_0_0 wl_0_0
+ wl_0_1 wl_0_2 wl_0_3 wl_0_4 wl_0_5 wl_0_6 wl_0_7 wl_0_8 wl_0_9 wl_0_10
+ wl_0_11 wl_0_12 wl_0_13 wl_0_14 wl_0_15 vdd gnd
+ sram_2_16_1_scn4m_subm_replica_bitcell_array
Xdummy_row_bot
+ rbl_bl_0_0 rbl_br_0_0 bl_0_0 br_0_0 bl_0_1 br_0_1 gnd vdd gnd
+ sram_2_16_1_scn4m_subm_dummy_array_1
Xdummy_row_top
+ rbl_bl_0_0 rbl_br_0_0 bl_0_0 br_0_0 bl_0_1 br_0_1 gnd vdd gnd
+ sram_2_16_1_scn4m_subm_dummy_array_0
Xdummy_col_left
+ dummy_left_bl_0_0 dummy_left_br_0_0 gnd rbl_wl_0_0 wl_0_0 wl_0_1
+ wl_0_2 wl_0_3 wl_0_4 wl_0_5 wl_0_6 wl_0_7 wl_0_8 wl_0_9 wl_0_10
+ wl_0_11 wl_0_12 wl_0_13 wl_0_14 wl_0_15 gnd vdd gnd
+ sram_2_16_1_scn4m_subm_dummy_array_2
Xdummy_col_right
+ dummy_right_bl_0_0 dummy_right_br_0_0 gnd rbl_wl_0_0 wl_0_0 wl_0_1
+ wl_0_2 wl_0_3 wl_0_4 wl_0_5 wl_0_6 wl_0_7 wl_0_8 wl_0_9 wl_0_10
+ wl_0_11 wl_0_12 wl_0_13 wl_0_14 wl_0_15 gnd vdd gnd
+ sram_2_16_1_scn4m_subm_dummy_array_3
.ENDS sram_2_16_1_scn4m_subm_capped_replica_bitcell_array
*********************** "sense_amp" ******************************

.SUBCKT sense_amp bl br dout en vdd gnd

* SPICE3 file created from sense_amp.ext - technology: scmos

M1000 gnd en a_56_432# gnd n w=1.8u l=0.4u
M1001 a_56_432# a_48_304# dint gnd n w=1.8u l=0.4u
M1002 a_48_304# dint a_56_432# gnd n w=1.8u l=0.4u
M1003 vdd a_48_304# dint vdd p w=3.6u l=0.4u
M1004 a_48_304# dint vdd vdd p w=3.6u l=0.4u
M1005 bl en dint vdd p w=4.8u l=0.4u
M1006 a_48_304# en br vdd p w=4.8u l=0.4u

M1007 dout_bar dint vdd vdd p w=1.6u l=0.4u
M1008 gnd dint dout_bar gnd n w=0.8u l=0.4u
M1009 dout dout_bar vdd vdd p w=4.8u l=0.4u
M1010 gnd dout_bar dout gnd n w=2.4u l=0.4u
.ENDS

.SUBCKT sram_2_16_1_scn4m_subm_sense_amp_array
+ data_0 bl_0 br_0 data_1 bl_1 br_1 en vdd gnd
* OUTPUT: data_0 
* INPUT : bl_0 
* INPUT : br_0 
* OUTPUT: data_1 
* INPUT : bl_1 
* INPUT : br_1 
* INPUT : en 
* POWER : vdd 
* GROUND: gnd 
* words_per_row: 1
Xsa_d0
+ bl_0 br_0 data_0 en vdd gnd
+ sense_amp
Xsa_d1
+ bl_1 br_1 data_1 en vdd gnd
+ sense_amp
.ENDS sram_2_16_1_scn4m_subm_sense_amp_array

* spice ptx M{0} {1} p m=1 w=1.6u l=0.4u pd=4.00u ps=4.00u as=1.60p ad=1.60p

.SUBCKT sram_2_16_1_scn4m_subm_precharge_0
+ bl br en_bar vdd
* OUTPUT: bl 
* OUTPUT: br 
* INPUT : en_bar 
* POWER : vdd 
Mlower_pmos bl en_bar br vdd p m=1 w=1.6u l=0.4u pd=4.00u ps=4.00u as=1.60p ad=1.60p
Mupper_pmos1 bl en_bar vdd vdd p m=1 w=1.6u l=0.4u pd=4.00u ps=4.00u as=1.60p ad=1.60p
Mupper_pmos2 br en_bar vdd vdd p m=1 w=1.6u l=0.4u pd=4.00u ps=4.00u as=1.60p ad=1.60p
.ENDS sram_2_16_1_scn4m_subm_precharge_0

.SUBCKT sram_2_16_1_scn4m_subm_precharge_array
+ bl_0 br_0 bl_1 br_1 bl_2 br_2 en_bar vdd
* OUTPUT: bl_0 
* OUTPUT: br_0 
* OUTPUT: bl_1 
* OUTPUT: br_1 
* OUTPUT: bl_2 
* OUTPUT: br_2 
* INPUT : en_bar 
* POWER : vdd 
* cols: 3 size: 1 bl: bl br: br
Xpre_column_0
+ bl_0 br_0 en_bar vdd
+ sram_2_16_1_scn4m_subm_precharge_0
Xpre_column_1
+ bl_1 br_1 en_bar vdd
+ sram_2_16_1_scn4m_subm_precharge_0
Xpre_column_2
+ bl_2 br_2 en_bar vdd
+ sram_2_16_1_scn4m_subm_precharge_0
.ENDS sram_2_16_1_scn4m_subm_precharge_array
*********************** Write_Driver ******************************
.SUBCKT write_driver din bl br en vdd gnd

**** Inverter to conver Data_in to data_in_bar ******
* din_bar = inv(din)
M_1 din_bar din gnd gnd n W=0.8u L=0.4u
M_2 din_bar din vdd vdd p W=1.4u L=0.4u

**** 2input nand gate follwed by inverter to drive BL ******
* din_bar_gated = nand(en, din)
M_3 din_bar_gated en net_7 gnd n W=1.4u L=0.4u
M_4 net_7 din gnd gnd n W=1.4u L=0.4u
M_5 din_bar_gated en vdd vdd p W=1.4u L=0.4u
M_6 din_bar_gated din vdd vdd p W=1.4u L=0.4u
* din_bar_gated_bar = inv(din_bar_gated)
M_7 din_bar_gated_bar din_bar_gated vdd vdd p W=1.4u L=0.4u
M_8 din_bar_gated_bar din_bar_gated gnd gnd n W=0.8u L=0.4u

**** 2input nand gate follwed by inverter to drive BR******
* din_gated = nand(en, din_bar)
M_9 din_gated en vdd vdd p W=1.4u L=0.4u
M_10 din_gated en net_8 gnd n W=1.4u L=0.4u
M_11 net_8 din_bar gnd gnd n W=1.4u L=0.4u
M_12 din_gated din_bar vdd vdd p W=1.4u L=0.4u
* din_gated_bar = inv(din_gated)
M_13 din_gated_bar din_gated vdd vdd p W=1.4u L=0.4u
M_14 din_gated_bar din_gated gnd gnd n W=0.8u L=0.4u

************************************************
* pull down with en enable
M_15 bl din_gated_bar gnd gnd n W=2.4u L=0.4u
M_16 br din_bar_gated_bar gnd gnd n W=2.4u L=0.4u



.ENDS   $ write_driver

.SUBCKT sram_2_16_1_scn4m_subm_write_driver_array
+ data_0 data_1 bl_0 br_0 bl_1 br_1 en vdd gnd
* INPUT : data_0 
* INPUT : data_1 
* OUTPUT: bl_0 
* OUTPUT: br_0 
* OUTPUT: bl_1 
* OUTPUT: br_1 
* INPUT : en 
* POWER : vdd 
* GROUND: gnd 
* word_size 2
Xwrite_driver0
+ data_0 bl_0 br_0 en vdd gnd
+ write_driver
Xwrite_driver1
+ data_1 bl_1 br_1 en vdd gnd
+ write_driver
.ENDS sram_2_16_1_scn4m_subm_write_driver_array

.SUBCKT sram_2_16_1_scn4m_subm_port_data
+ rbl_bl rbl_br bl_0 br_0 bl_1 br_1 dout_0 dout_1 din_0 din_1 s_en
+ p_en_bar w_en vdd gnd
* INOUT : rbl_bl 
* INOUT : rbl_br 
* INOUT : bl_0 
* INOUT : br_0 
* INOUT : bl_1 
* INOUT : br_1 
* OUTPUT: dout_0 
* OUTPUT: dout_1 
* INPUT : din_0 
* INPUT : din_1 
* INPUT : s_en 
* INPUT : p_en_bar 
* INPUT : w_en 
* POWER : vdd 
* GROUND: gnd 
Xprecharge_array0
+ rbl_bl rbl_br bl_0 br_0 bl_1 br_1 p_en_bar vdd
+ sram_2_16_1_scn4m_subm_precharge_array
Xsense_amp_array0
+ dout_0 bl_0 br_0 dout_1 bl_1 br_1 s_en vdd gnd
+ sram_2_16_1_scn4m_subm_sense_amp_array
Xwrite_driver_array0
+ din_0 din_1 bl_0 br_0 bl_1 br_1 w_en vdd gnd
+ sram_2_16_1_scn4m_subm_write_driver_array
.ENDS sram_2_16_1_scn4m_subm_port_data

* spice ptx M{0} {1} p m=1 w=1.6u l=0.4u pd=4.00u ps=4.00u as=1.60p ad=1.60p

* spice ptx M{0} {1} n m=1 w=0.8u l=0.4u pd=2.40u ps=2.40u as=0.80p ad=0.80p

.SUBCKT sram_2_16_1_scn4m_subm_pinv
+ A Z vdd gnd
* INPUT : A 
* OUTPUT: Z 
* POWER : vdd 
* GROUND: gnd 
Mpinv_pmos Z A vdd vdd p m=1 w=1.6u l=0.4u pd=4.00u ps=4.00u as=1.60p ad=1.60p
Mpinv_nmos Z A gnd gnd n m=1 w=0.8u l=0.4u pd=2.40u ps=2.40u as=0.80p ad=0.80p
.ENDS sram_2_16_1_scn4m_subm_pinv

* spice ptx M{0} {1} n m=1 w=1.6u l=0.4u pd=4.00u ps=4.00u as=1.60p ad=1.60p

* spice ptx M{0} {1} n m=1 w=1.6u l=0.4u pd=4.00u ps=4.00u as=1.60p ad=1.60p

.SUBCKT sram_2_16_1_scn4m_subm_pnand2
+ A B Z vdd gnd
* INPUT : A 
* INPUT : B 
* OUTPUT: Z 
* POWER : vdd 
* GROUND: gnd 
Mpnand2_pmos1 vdd A Z vdd p m=1 w=1.6u l=0.4u pd=4.00u ps=4.00u as=1.60p ad=1.60p
Mpnand2_pmos2 Z B vdd vdd p m=1 w=1.6u l=0.4u pd=4.00u ps=4.00u as=1.60p ad=1.60p
Mpnand2_nmos1 Z B net1 gnd n m=1 w=1.6u l=0.4u pd=4.00u ps=4.00u as=1.60p ad=1.60p
Mpnand2_nmos2 net1 A gnd gnd n m=1 w=1.6u l=0.4u pd=4.00u ps=4.00u as=1.60p ad=1.60p
.ENDS sram_2_16_1_scn4m_subm_pnand2

.SUBCKT sram_2_16_1_scn4m_subm_and2_dec
+ A B Z vdd gnd
* INPUT : A 
* INPUT : B 
* OUTPUT: Z 
* POWER : vdd 
* GROUND: gnd 
* size: 1
Xpand2_dec_nand
+ A B zb_int vdd gnd
+ sram_2_16_1_scn4m_subm_pnand2
Xpand2_dec_inv
+ zb_int Z vdd gnd
+ sram_2_16_1_scn4m_subm_pinv
.ENDS sram_2_16_1_scn4m_subm_and2_dec

.SUBCKT sram_2_16_1_scn4m_subm_hierarchical_predecode2x4
+ in_0 in_1 out_0 out_1 out_2 out_3 vdd gnd
* INPUT : in_0 
* INPUT : in_1 
* OUTPUT: out_0 
* OUTPUT: out_1 
* OUTPUT: out_2 
* OUTPUT: out_3 
* POWER : vdd 
* GROUND: gnd 
Xpre_inv_0
+ in_0 inbar_0 vdd gnd
+ sram_2_16_1_scn4m_subm_pinv
Xpre_inv_1
+ in_1 inbar_1 vdd gnd
+ sram_2_16_1_scn4m_subm_pinv
XXpre2x4_and_0
+ inbar_0 inbar_1 out_0 vdd gnd
+ sram_2_16_1_scn4m_subm_and2_dec
XXpre2x4_and_1
+ in_0 inbar_1 out_1 vdd gnd
+ sram_2_16_1_scn4m_subm_and2_dec
XXpre2x4_and_2
+ inbar_0 in_1 out_2 vdd gnd
+ sram_2_16_1_scn4m_subm_and2_dec
XXpre2x4_and_3
+ in_0 in_1 out_3 vdd gnd
+ sram_2_16_1_scn4m_subm_and2_dec
.ENDS sram_2_16_1_scn4m_subm_hierarchical_predecode2x4

.SUBCKT sram_2_16_1_scn4m_subm_hierarchical_decoder
+ addr_0 addr_1 addr_2 addr_3 decode_0 decode_1 decode_2 decode_3
+ decode_4 decode_5 decode_6 decode_7 decode_8 decode_9 decode_10
+ decode_11 decode_12 decode_13 decode_14 decode_15 vdd gnd
* INPUT : addr_0 
* INPUT : addr_1 
* INPUT : addr_2 
* INPUT : addr_3 
* OUTPUT: decode_0 
* OUTPUT: decode_1 
* OUTPUT: decode_2 
* OUTPUT: decode_3 
* OUTPUT: decode_4 
* OUTPUT: decode_5 
* OUTPUT: decode_6 
* OUTPUT: decode_7 
* OUTPUT: decode_8 
* OUTPUT: decode_9 
* OUTPUT: decode_10 
* OUTPUT: decode_11 
* OUTPUT: decode_12 
* OUTPUT: decode_13 
* OUTPUT: decode_14 
* OUTPUT: decode_15 
* POWER : vdd 
* GROUND: gnd 
Xpre_0
+ addr_0 addr_1 out_0 out_1 out_2 out_3 vdd gnd
+ sram_2_16_1_scn4m_subm_hierarchical_predecode2x4
Xpre_1
+ addr_2 addr_3 out_4 out_5 out_6 out_7 vdd gnd
+ sram_2_16_1_scn4m_subm_hierarchical_predecode2x4
XDEC_AND_0
+ out_0 out_4 decode_0 vdd gnd
+ sram_2_16_1_scn4m_subm_and2_dec
XDEC_AND_4
+ out_0 out_5 decode_4 vdd gnd
+ sram_2_16_1_scn4m_subm_and2_dec
XDEC_AND_8
+ out_0 out_6 decode_8 vdd gnd
+ sram_2_16_1_scn4m_subm_and2_dec
XDEC_AND_12
+ out_0 out_7 decode_12 vdd gnd
+ sram_2_16_1_scn4m_subm_and2_dec
XDEC_AND_1
+ out_1 out_4 decode_1 vdd gnd
+ sram_2_16_1_scn4m_subm_and2_dec
XDEC_AND_5
+ out_1 out_5 decode_5 vdd gnd
+ sram_2_16_1_scn4m_subm_and2_dec
XDEC_AND_9
+ out_1 out_6 decode_9 vdd gnd
+ sram_2_16_1_scn4m_subm_and2_dec
XDEC_AND_13
+ out_1 out_7 decode_13 vdd gnd
+ sram_2_16_1_scn4m_subm_and2_dec
XDEC_AND_2
+ out_2 out_4 decode_2 vdd gnd
+ sram_2_16_1_scn4m_subm_and2_dec
XDEC_AND_6
+ out_2 out_5 decode_6 vdd gnd
+ sram_2_16_1_scn4m_subm_and2_dec
XDEC_AND_10
+ out_2 out_6 decode_10 vdd gnd
+ sram_2_16_1_scn4m_subm_and2_dec
XDEC_AND_14
+ out_2 out_7 decode_14 vdd gnd
+ sram_2_16_1_scn4m_subm_and2_dec
XDEC_AND_3
+ out_3 out_4 decode_3 vdd gnd
+ sram_2_16_1_scn4m_subm_and2_dec
XDEC_AND_7
+ out_3 out_5 decode_7 vdd gnd
+ sram_2_16_1_scn4m_subm_and2_dec
XDEC_AND_11
+ out_3 out_6 decode_11 vdd gnd
+ sram_2_16_1_scn4m_subm_and2_dec
XDEC_AND_15
+ out_3 out_7 decode_15 vdd gnd
+ sram_2_16_1_scn4m_subm_and2_dec
.ENDS sram_2_16_1_scn4m_subm_hierarchical_decoder

.SUBCKT sram_2_16_1_scn4m_subm_wordline_driver
+ A B Z vdd gnd
* INPUT : A 
* INPUT : B 
* OUTPUT: Z 
* POWER : vdd 
* GROUND: gnd 
Xwld_nand
+ A B zb_int vdd gnd
+ sram_2_16_1_scn4m_subm_pnand2
Xwl_driver
+ zb_int Z vdd gnd
+ sram_2_16_1_scn4m_subm_pinv
.ENDS sram_2_16_1_scn4m_subm_wordline_driver

.SUBCKT sram_2_16_1_scn4m_subm_wordline_driver_array
+ in_0 in_1 in_2 in_3 in_4 in_5 in_6 in_7 in_8 in_9 in_10 in_11 in_12
+ in_13 in_14 in_15 wl_0 wl_1 wl_2 wl_3 wl_4 wl_5 wl_6 wl_7 wl_8 wl_9
+ wl_10 wl_11 wl_12 wl_13 wl_14 wl_15 en vdd gnd
* INPUT : in_0 
* INPUT : in_1 
* INPUT : in_2 
* INPUT : in_3 
* INPUT : in_4 
* INPUT : in_5 
* INPUT : in_6 
* INPUT : in_7 
* INPUT : in_8 
* INPUT : in_9 
* INPUT : in_10 
* INPUT : in_11 
* INPUT : in_12 
* INPUT : in_13 
* INPUT : in_14 
* INPUT : in_15 
* OUTPUT: wl_0 
* OUTPUT: wl_1 
* OUTPUT: wl_2 
* OUTPUT: wl_3 
* OUTPUT: wl_4 
* OUTPUT: wl_5 
* OUTPUT: wl_6 
* OUTPUT: wl_7 
* OUTPUT: wl_8 
* OUTPUT: wl_9 
* OUTPUT: wl_10 
* OUTPUT: wl_11 
* OUTPUT: wl_12 
* OUTPUT: wl_13 
* OUTPUT: wl_14 
* OUTPUT: wl_15 
* INPUT : en 
* POWER : vdd 
* GROUND: gnd 
* rows: 16 cols: 2
Xwl_driver_and0
+ in_0 en wl_0 vdd gnd
+ sram_2_16_1_scn4m_subm_wordline_driver
Xwl_driver_and1
+ in_1 en wl_1 vdd gnd
+ sram_2_16_1_scn4m_subm_wordline_driver
Xwl_driver_and2
+ in_2 en wl_2 vdd gnd
+ sram_2_16_1_scn4m_subm_wordline_driver
Xwl_driver_and3
+ in_3 en wl_3 vdd gnd
+ sram_2_16_1_scn4m_subm_wordline_driver
Xwl_driver_and4
+ in_4 en wl_4 vdd gnd
+ sram_2_16_1_scn4m_subm_wordline_driver
Xwl_driver_and5
+ in_5 en wl_5 vdd gnd
+ sram_2_16_1_scn4m_subm_wordline_driver
Xwl_driver_and6
+ in_6 en wl_6 vdd gnd
+ sram_2_16_1_scn4m_subm_wordline_driver
Xwl_driver_and7
+ in_7 en wl_7 vdd gnd
+ sram_2_16_1_scn4m_subm_wordline_driver
Xwl_driver_and8
+ in_8 en wl_8 vdd gnd
+ sram_2_16_1_scn4m_subm_wordline_driver
Xwl_driver_and9
+ in_9 en wl_9 vdd gnd
+ sram_2_16_1_scn4m_subm_wordline_driver
Xwl_driver_and10
+ in_10 en wl_10 vdd gnd
+ sram_2_16_1_scn4m_subm_wordline_driver
Xwl_driver_and11
+ in_11 en wl_11 vdd gnd
+ sram_2_16_1_scn4m_subm_wordline_driver
Xwl_driver_and12
+ in_12 en wl_12 vdd gnd
+ sram_2_16_1_scn4m_subm_wordline_driver
Xwl_driver_and13
+ in_13 en wl_13 vdd gnd
+ sram_2_16_1_scn4m_subm_wordline_driver
Xwl_driver_and14
+ in_14 en wl_14 vdd gnd
+ sram_2_16_1_scn4m_subm_wordline_driver
Xwl_driver_and15
+ in_15 en wl_15 vdd gnd
+ sram_2_16_1_scn4m_subm_wordline_driver
.ENDS sram_2_16_1_scn4m_subm_wordline_driver_array

.SUBCKT sram_2_16_1_scn4m_subm_and2_dec_0
+ A B Z vdd gnd
* INPUT : A 
* INPUT : B 
* OUTPUT: Z 
* POWER : vdd 
* GROUND: gnd 
* size: 1
Xpand2_dec_nand
+ A B zb_int vdd gnd
+ sram_2_16_1_scn4m_subm_pnand2
Xpand2_dec_inv
+ zb_int Z vdd gnd
+ sram_2_16_1_scn4m_subm_pinv
.ENDS sram_2_16_1_scn4m_subm_and2_dec_0

.SUBCKT sram_2_16_1_scn4m_subm_port_address
+ addr_0 addr_1 addr_2 addr_3 wl_en wl_0 wl_1 wl_2 wl_3 wl_4 wl_5 wl_6
+ wl_7 wl_8 wl_9 wl_10 wl_11 wl_12 wl_13 wl_14 wl_15 rbl_wl vdd gnd
* INPUT : addr_0 
* INPUT : addr_1 
* INPUT : addr_2 
* INPUT : addr_3 
* INPUT : wl_en 
* OUTPUT: wl_0 
* OUTPUT: wl_1 
* OUTPUT: wl_2 
* OUTPUT: wl_3 
* OUTPUT: wl_4 
* OUTPUT: wl_5 
* OUTPUT: wl_6 
* OUTPUT: wl_7 
* OUTPUT: wl_8 
* OUTPUT: wl_9 
* OUTPUT: wl_10 
* OUTPUT: wl_11 
* OUTPUT: wl_12 
* OUTPUT: wl_13 
* OUTPUT: wl_14 
* OUTPUT: wl_15 
* OUTPUT: rbl_wl 
* POWER : vdd 
* GROUND: gnd 
Xrow_decoder
+ addr_0 addr_1 addr_2 addr_3 dec_out_0 dec_out_1 dec_out_2 dec_out_3
+ dec_out_4 dec_out_5 dec_out_6 dec_out_7 dec_out_8 dec_out_9 dec_out_10
+ dec_out_11 dec_out_12 dec_out_13 dec_out_14 dec_out_15 vdd gnd
+ sram_2_16_1_scn4m_subm_hierarchical_decoder
Xwordline_driver
+ dec_out_0 dec_out_1 dec_out_2 dec_out_3 dec_out_4 dec_out_5 dec_out_6
+ dec_out_7 dec_out_8 dec_out_9 dec_out_10 dec_out_11 dec_out_12
+ dec_out_13 dec_out_14 dec_out_15 wl_0 wl_1 wl_2 wl_3 wl_4 wl_5 wl_6
+ wl_7 wl_8 wl_9 wl_10 wl_11 wl_12 wl_13 wl_14 wl_15 wl_en vdd gnd
+ sram_2_16_1_scn4m_subm_wordline_driver_array
Xrbl_driver
+ wl_en vdd rbl_wl vdd gnd
+ sram_2_16_1_scn4m_subm_and2_dec_0
.ENDS sram_2_16_1_scn4m_subm_port_address

.SUBCKT sram_2_16_1_scn4m_subm_bank
+ dout0_0 dout0_1 rbl_bl_0_0 din0_0 din0_1 addr0_0 addr0_1 addr0_2
+ addr0_3 s_en0 p_en_bar0 w_en0 wl_en0 vdd gnd
* OUTPUT: dout0_0 
* OUTPUT: dout0_1 
* OUTPUT: rbl_bl_0_0 
* INPUT : din0_0 
* INPUT : din0_1 
* INPUT : addr0_0 
* INPUT : addr0_1 
* INPUT : addr0_2 
* INPUT : addr0_3 
* INPUT : s_en0 
* INPUT : p_en_bar0 
* INPUT : w_en0 
* INPUT : wl_en0 
* POWER : vdd 
* GROUND: gnd 
Xbitcell_array
+ rbl_bl_0_0 rbl_br_0_0 bl_0_0 br_0_0 bl_0_1 br_0_1 rbl_wl0 wl_0_0
+ wl_0_1 wl_0_2 wl_0_3 wl_0_4 wl_0_5 wl_0_6 wl_0_7 wl_0_8 wl_0_9 wl_0_10
+ wl_0_11 wl_0_12 wl_0_13 wl_0_14 wl_0_15 vdd gnd
+ sram_2_16_1_scn4m_subm_capped_replica_bitcell_array
Xport_data0
+ rbl_bl_0_0 rbl_br_0_0 bl_0_0 br_0_0 bl_0_1 br_0_1 dout0_0 dout0_1
+ din0_0 din0_1 s_en0 p_en_bar0 w_en0 vdd gnd
+ sram_2_16_1_scn4m_subm_port_data
Xport_address0
+ addr0_0 addr0_1 addr0_2 addr0_3 wl_en0 wl_0_0 wl_0_1 wl_0_2 wl_0_3
+ wl_0_4 wl_0_5 wl_0_6 wl_0_7 wl_0_8 wl_0_9 wl_0_10 wl_0_11 wl_0_12
+ wl_0_13 wl_0_14 wl_0_15 rbl_wl0 vdd gnd
+ sram_2_16_1_scn4m_subm_port_address
.ENDS sram_2_16_1_scn4m_subm_bank
*********************** "dff" ******************************
* Positive edge-triggered FF
.SUBCKT dff D Q clk vdd gnd

* SPICE3 file created from dff.ext - technology: scmos

M1000 vdd clk a_24_24# vdd p w=8u l=0.4u
M1001 a_84_296# D vdd vdd p w=4u l=0.4u
M1002 a_104_24# clk a_84_296# vdd p w=4u l=0.4u
M1003 a_140_296# a_24_24# a_104_24# vdd p w=4u l=0.4u
M1004 vdd a_152_16# a_140_296# vdd p w=4u l=0.4u
M1005 a_152_16# a_104_24# vdd vdd p w=4u l=0.4u
M1006 a_260_296# a_152_16# vdd vdd p w=4u l=0.4u
M1007 a_280_24# a_24_24# a_260_296# vdd p w=4u l=0.4u
M1008 a_320_336# clk a_280_24# vdd p w=2u l=0.4u
M1009 vdd Q a_320_336# vdd p w=2u l=0.4u
M1010 gnd clk a_24_24# gnd n w=4u l=0.4u
M1011 Q a_280_24# vdd vdd p w=8u l=0.4u
M1012 a_84_24# D gnd gnd n w=2u l=0.4u
M1013 a_104_24# a_24_24# a_84_24# gnd n w=2u l=0.4u
M1014 a_140_24# clk a_104_24# gnd n w=2u l=0.4u
M1015 gnd a_152_16# a_140_24# gnd n w=2u l=0.4u
M1016 a_152_16# a_104_24# gnd gnd n w=2u l=0.4u
M1017 a_260_24# a_152_16# gnd gnd n w=2u l=0.4u
M1018 a_280_24# clk a_260_24# gnd n w=2u l=0.4u
M1019 a_320_24# a_24_24# a_280_24# gnd n w=2u l=0.4u
M1020 gnd Q a_320_24# gnd n w=2u l=0.4u
M1021 Q a_280_24# gnd gnd n w=4u l=0.4u

.ENDS

.SUBCKT sram_2_16_1_scn4m_subm_data_dff
+ din_0 din_1 dout_0 dout_1 clk vdd gnd
* INPUT : din_0 
* INPUT : din_1 
* OUTPUT: dout_0 
* OUTPUT: dout_1 
* INPUT : clk 
* POWER : vdd 
* GROUND: gnd 
* rows: 1 cols: 2
Xdff_r0_c0
+ din_0 dout_0 clk vdd gnd
+ dff
Xdff_r0_c1
+ din_1 dout_1 clk vdd gnd
+ dff
.ENDS sram_2_16_1_scn4m_subm_data_dff

.SUBCKT sram_2_16_1_scn4m_subm_row_addr_dff
+ din_0 din_1 din_2 din_3 dout_0 dout_1 dout_2 dout_3 clk vdd gnd
* INPUT : din_0 
* INPUT : din_1 
* INPUT : din_2 
* INPUT : din_3 
* OUTPUT: dout_0 
* OUTPUT: dout_1 
* OUTPUT: dout_2 
* OUTPUT: dout_3 
* INPUT : clk 
* POWER : vdd 
* GROUND: gnd 
* rows: 4 cols: 1
Xdff_r0_c0
+ din_0 dout_0 clk vdd gnd
+ dff
Xdff_r1_c0
+ din_1 dout_1 clk vdd gnd
+ dff
Xdff_r2_c0
+ din_2 dout_2 clk vdd gnd
+ dff
Xdff_r3_c0
+ din_3 dout_3 clk vdd gnd
+ dff
.ENDS sram_2_16_1_scn4m_subm_row_addr_dff

* spice ptx M{0} {1} n m=1 w=4.0u l=0.4u pd=8.80u ps=8.80u as=4.00p ad=4.00p

* spice ptx M{0} {1} p m=1 w=8.0u l=0.4u pd=16.80u ps=16.80u as=8.00p ad=8.00p

.SUBCKT sram_2_16_1_scn4m_subm_pinv_7
+ A Z vdd gnd
* INPUT : A 
* OUTPUT: Z 
* POWER : vdd 