* NGSPICE file created from sram_2_16_scn4m_subm.ext - technology: scmos

.SUBCKT sram_2_16_scn4m_subm din0[0] din0[1] addr0[0] addr0[1] addr0[2] addr0[3] csb0 web0 clk0 dout0[0] dout0[1] vdd gnd
+ bitcell_Q_b0_r15_c1 bitcell_Q_bar_b0_r15_c1 bl0_0 br0_0 bl0_1 br0_1 
+ bank_0/s_en0
M1000 data_dff_0/dff_0/a_304_32# data_dff_0/dff_0/a_208_48# gnd gnd n w=2u l=0.4u
+  ad=2p pd=6u as=739.779p ps=1942.38u
M1001 data_dff_0/dff_0/a_640_48# data_dff_0/dff_0/a_48_48# data_dff_0/dff_0/a_560_48# gnd n w=2u l=0.4u
+  ad=1.2p pd=5.2u as=3.2p ps=7.2u
M1002 gnd bank_0/din0_1 data_dff_0/dff_0/a_640_48# gnd n w=2u l=0.4u
+  ad=0p pd=0u as=0p ps=0u
M1003 data_dff_0/dff_0/a_280_48# data_dff_0/clk data_dff_0/dff_0/a_208_48# gnd n w=2u l=0.4u
+  ad=1.2p pd=5.2u as=2.8p ps=6.8u
M1004 vdd data_dff_0/clk data_dff_0/dff_0/a_48_48# vdd p w=8u l=0.4u
+  ad=942.654p pd=2713.82u as=8p ps=18u
M1005 gnd data_dff_0/clk data_dff_0/dff_0/a_48_48# gnd n w=4u l=0.4u
+  ad=0p pd=0u as=4p ps=10u
M1006 data_dff_0/dff_0/a_168_48# din0[1] gnd gnd n w=2u l=0.4u
+  ad=1.2p pd=5.2u as=0p ps=0u
M1007 data_dff_0/dff_0/a_208_48# data_dff_0/dff_0/a_48_48# data_dff_0/dff_0/a_168_48# gnd n w=2u l=0.4u
+  ad=0p pd=0u as=0p ps=0u
M1008 gnd data_dff_0/dff_0/a_304_32# data_dff_0/dff_0/a_280_48# gnd n w=2u l=0.4u
+  ad=0p pd=0u as=0p ps=0u
M1009 bank_0/din0_1 data_dff_0/dff_0/a_560_48# gnd gnd n w=4u l=0.4u
+  ad=4p pd=10u as=0p ps=0u
M1010 vdd bank_0/din0_1 data_dff_0/dff_0/a_640_672# vdd p w=2u l=0.4u
+  ad=0p pd=0u as=1.2p ps=5.2u
M1011 vdd data_dff_0/dff_0/a_304_32# data_dff_0/dff_0/a_280_592# vdd p w=4u l=0.4u
+  ad=0p pd=0u as=3.2p ps=9.6u
M1012 data_dff_0/dff_0/a_208_48# data_dff_0/clk data_dff_0/dff_0/a_168_592# vdd p w=4u l=0.4u
+  ad=4.8p pd=10.4u as=3.2p ps=9.6u
M1013 data_dff_0/dff_0/a_640_672# data_dff_0/clk data_dff_0/dff_0/a_560_48# vdd p w=2u l=0.4u
+  ad=0p pd=0u as=6p ps=11.2u
M1014 bank_0/din0_1 data_dff_0/dff_0/a_560_48# vdd vdd p w=8u l=0.4u
+  ad=8p pd=18u as=0p ps=0u
M1015 data_dff_0/dff_0/a_560_48# data_dff_0/dff_0/a_48_48# data_dff_0/dff_0/a_520_592# vdd p w=4u l=0.4u
+  ad=0p pd=0u as=2.4p ps=9.2u
M1016 data_dff_0/dff_0/a_304_32# data_dff_0/dff_0/a_208_48# vdd vdd p w=4u l=0.4u
+  ad=4p pd=10u as=0p ps=0u
M1017 data_dff_0/dff_0/a_520_48# data_dff_0/dff_0/a_304_32# gnd gnd n w=2u l=0.4u
+  ad=1.2p pd=5.2u as=0p ps=0u
M1018 data_dff_0/dff_0/a_560_48# data_dff_0/clk data_dff_0/dff_0/a_520_48# gnd n w=2u l=0.4u
+  ad=0p pd=0u as=0p ps=0u
M1019 data_dff_0/dff_0/a_280_592# data_dff_0/dff_0/a_48_48# data_dff_0/dff_0/a_208_48# vdd p w=4u l=0.4u
+  ad=0p pd=0u as=0p ps=0u
M1020 data_dff_0/dff_0/a_168_592# din0[1] vdd vdd p w=4u l=0.4u
+  ad=0p pd=0u as=0p ps=0u
M1021 data_dff_0/dff_0/a_520_592# data_dff_0/dff_0/a_304_32# vdd vdd p w=4u l=0.4u
+  ad=0p pd=0u as=0p ps=0u
M1022 data_dff_0/dff_1/a_304_32# data_dff_0/dff_1/a_208_48# gnd gnd n w=2u l=0.4u
+  ad=2p pd=6u as=0p ps=0u
M1023 data_dff_0/dff_1/a_640_48# data_dff_0/dff_1/a_48_48# data_dff_0/dff_1/a_560_48# gnd n w=2u l=0.4u
+  ad=1.2p pd=5.2u as=3.2p ps=7.2u
M1024 gnd bank_0/din0_0 data_dff_0/dff_1/a_640_48# gnd n w=2u l=0.4u
+  ad=0p pd=0u as=0p ps=0u
M1025 data_dff_0/dff_1/a_280_48# data_dff_0/clk data_dff_0/dff_1/a_208_48# gnd n w=2u l=0.4u
+  ad=1.2p pd=5.2u as=2.8p ps=6.8u
M1026 vdd data_dff_0/clk data_dff_0/dff_1/a_48_48# vdd p w=8u l=0.4u
+  ad=0p pd=0u as=8p ps=18u
M1027 gnd data_dff_0/clk data_dff_0/dff_1/a_48_48# gnd n w=4u l=0.4u
+  ad=0p pd=0u as=4p ps=10u
M1028 data_dff_0/dff_1/a_168_48# din0[0] gnd gnd n w=2u l=0.4u
+  ad=1.2p pd=5.2u as=0p ps=0u
M1029 data_dff_0/dff_1/a_208_48# data_dff_0/dff_1/a_48_48# data_dff_0/dff_1/a_168_48# gnd n w=2u l=0.4u
+  ad=0p pd=0u as=0p ps=0u
M1030 gnd data_dff_0/dff_1/a_304_32# data_dff_0/dff_1/a_280_48# gnd n w=2u l=0.4u
+  ad=0p pd=0u as=0p ps=0u
M1031 bank_0/din0_0 data_dff_0/dff_1/a_560_48# gnd gnd n w=4u l=0.4u
+  ad=4p pd=10u as=0p ps=0u
M1032 vdd bank_0/din0_0 data_dff_0/dff_1/a_640_672# vdd p w=2u l=0.4u
+  ad=0p pd=0u as=1.2p ps=5.2u
M1033 vdd data_dff_0/dff_1/a_304_32# data_dff_0/dff_1/a_280_592# vdd p w=4u l=0.4u
+  ad=0p pd=0u as=3.2p ps=9.6u
M1034 data_dff_0/dff_1/a_208_48# data_dff_0/clk data_dff_0/dff_1/a_168_592# vdd p w=4u l=0.4u
+  ad=4.8p pd=10.4u as=3.2p ps=9.6u
M1035 data_dff_0/dff_1/a_640_672# data_dff_0/clk data_dff_0/dff_1/a_560_48# vdd p w=2u l=0.4u
+  ad=0p pd=0u as=6p ps=11.2u
M1036 bank_0/din0_0 data_dff_0/dff_1/a_560_48# vdd vdd p w=8u l=0.4u
+  ad=8p pd=18u as=0p ps=0u
M1037 data_dff_0/dff_1/a_560_48# data_dff_0/dff_1/a_48_48# data_dff_0/dff_1/a_520_592# vdd p w=4u l=0.4u
+  ad=0p pd=0u as=2.4p ps=9.2u
M1038 data_dff_0/dff_1/a_304_32# data_dff_0/dff_1/a_208_48# vdd vdd p w=4u l=0.4u
+  ad=4p pd=10u as=0p ps=0u
M1039 data_dff_0/dff_1/a_520_48# data_dff_0/dff_1/a_304_32# gnd gnd n w=2u l=0.4u
+  ad=1.2p pd=5.2u as=0p ps=0u
M1040 data_dff_0/dff_1/a_560_48# data_dff_0/clk data_dff_0/dff_1/a_520_48# gnd n w=2u l=0.4u
+  ad=0p pd=0u as=0p ps=0u
M1041 data_dff_0/dff_1/a_280_592# data_dff_0/dff_1/a_48_48# data_dff_0/dff_1/a_208_48# vdd p w=4u l=0.4u
+  ad=0p pd=0u as=0p ps=0u
M1042 data_dff_0/dff_1/a_168_592# din0[0] vdd vdd p w=4u l=0.4u
+  ad=0p pd=0u as=0p ps=0u
M1043 data_dff_0/dff_1/a_520_592# data_dff_0/dff_1/a_304_32# vdd vdd p w=4u l=0.4u
+  ad=0p pd=0u as=0p ps=0u
M1044 control_logic_rw_0/pand3_0_0/pnand3_0_0/nmos_m1_w1_600_sactive_dm1_0/S control_logic_rw_0/pand2_1/Z control_logic_rw_0/pand3_0_0/pnand3_0_0/nmos_m1_w1_600_sm1_dactive_0/D gnd n w=1.6u l=0.4u
+  ad=2.56063p pd=6.425u as=2.56063p ps=6.425u
M1045 control_logic_rw_0/pand3_0_0/pnand3_0_0/nmos_m1_w1_600_sm1_dactive_0/D control_logic_rw_0/pinv_4_0/A gnd gnd n w=1.6u l=0.4u
+  ad=0p pd=0u as=0p ps=0u
M1046 control_logic_rw_0/pand3_0_0/pnand3_0_0/Z control_logic_rw_0/pand3_0_0/C control_logic_rw_0/pand3_0_0/pnand3_0_0/nmos_m1_w1_600_sactive_dm1_0/S gnd n w=1.6u l=0.4u
+  ad=1.92063p pd=5.625u as=0p ps=0u
M1047 vdd control_logic_rw_0/pand2_1/Z control_logic_rw_0/pand3_0_0/pnand3_0_0/Z vdd p w=1.6u l=0.4u
+  ad=0p pd=0u as=5.76188p ps=12.1u
M1048 control_logic_rw_0/pand3_0_0/pnand3_0_0/Z control_logic_rw_0/pand3_0_0/C vdd vdd p w=1.6u l=0.4u
+  ad=0p pd=0u as=0p ps=0u
M1049 control_logic_rw_0/pand3_0_0/pnand3_0_0/Z control_logic_rw_0/pinv_4_0/A vdd vdd p w=1.6u l=0.4u
+  ad=0p pd=0u as=0p ps=0u
M1050 bank_0/s_en0 control_logic_rw_0/pand3_0_0/pnand3_0_0/Z vdd vdd p w=3.2u l=0.4u
+  ad=3.84063p pd=8.825u as=0p ps=0u
M1051 bank_0/s_en0 control_logic_rw_0/pand3_0_0/pnand3_0_0/Z gnd gnd n w=1.6u l=0.4u
+  ad=1.92063p pd=5.625u as=0p ps=0u
M1052 control_logic_rw_0/dff_buf_array_0/dff_buf_0_1/dff_0/a_304_32# control_logic_rw_0/dff_buf_array_0/dff_buf_0_1/dff_0/a_208_48# gnd gnd n w=2u l=0.4u
+  ad=2p pd=6u as=0p ps=0u
M1053 control_logic_rw_0/dff_buf_array_0/dff_buf_0_1/dff_0/a_640_48# control_logic_rw_0/dff_buf_array_0/dff_buf_0_1/dff_0/a_48_48# control_logic_rw_0/dff_buf_array_0/dff_buf_0_1/dff_0/a_560_48# gnd n w=2u l=0.4u
+  ad=1.2p pd=5.2u as=3.2p ps=7.2u
M1054 gnd control_logic_rw_0/dff_buf_array_0/dff_buf_0_1/dff_0/Q control_logic_rw_0/dff_buf_array_0/dff_buf_0_1/dff_0/a_640_48# gnd n w=2u l=0.4u
+  ad=0p pd=0u as=0p ps=0u
M1055 control_logic_rw_0/dff_buf_array_0/dff_buf_0_1/dff_0/a_280_48# data_dff_0/clk control_logic_rw_0/dff_buf_array_0/dff_buf_0_1/dff_0/a_208_48# gnd n w=2u l=0.4u
+  ad=1.2p pd=5.2u as=2.8p ps=6.8u
M1056 vdd data_dff_0/clk control_logic_rw_0/dff_buf_array_0/dff_buf_0_1/dff_0/a_48_48# vdd p w=8u l=0.4u
+  ad=0p pd=0u as=8p ps=18u
M1057 gnd data_dff_0/clk control_logic_rw_0/dff_buf_array_0/dff_buf_0_1/dff_0/a_48_48# gnd n w=4u l=0.4u
+  ad=0p pd=0u as=4p ps=10u
M1058 control_logic_rw_0/dff_buf_array_0/dff_buf_0_1/dff_0/a_168_48# csb0 gnd gnd n w=2u l=0.4u
+  ad=1.2p pd=5.2u as=0p ps=0u
M1059 control_logic_rw_0/dff_buf_array_0/dff_buf_0_1/dff_0/a_208_48# control_logic_rw_0/dff_buf_array_0/dff_buf_0_1/dff_0/a_48_48# control_logic_rw_0/dff_buf_array_0/dff_buf_0_1/dff_0/a_168_48# gnd n w=2u l=0.4u
+  ad=0p pd=0u as=0p ps=0u
M1060 gnd control_logic_rw_0/dff_buf_array_0/dff_buf_0_1/dff_0/a_304_32# control_logic_rw_0/dff_buf_array_0/dff_buf_0_1/dff_0/a_280_48# gnd n w=2u l=0.4u
+  ad=0p pd=0u as=0p ps=0u
M1061 control_logic_rw_0/dff_buf_array_0/dff_buf_0_1/dff_0/Q control_logic_rw_0/dff_buf_array_0/dff_buf_0_1/dff_0/a_560_48# gnd gnd n w=4u l=0.4u
+  ad=4p pd=10u as=0p ps=0u
M1062 vdd control_logic_rw_0/dff_buf_array_0/dff_buf_0_1/dff_0/Q control_logic_rw_0/dff_buf_array_0/dff_buf_0_1/dff_0/a_640_672# vdd p w=2u l=0.4u
+  ad=0p pd=0u as=1.2p ps=5.2u
M1063 vdd control_logic_rw_0/dff_buf_array_0/dff_buf_0_1/dff_0/a_304_32# control_logic_rw_0/dff_buf_array_0/dff_buf_0_1/dff_0/a_280_592# vdd p w=4u l=0.4u
+  ad=0p pd=0u as=3.2p ps=9.6u
M1064 control_logic_rw_0/dff_buf_array_0/dff_buf_0_1/dff_0/a_208_48# data_dff_0/clk control_logic_rw_0/dff_buf_array_0/dff_buf_0_1/dff_0/a_168_592# vdd p w=4u l=0.4u
+  ad=4.8p pd=10.4u as=3.2p ps=9.6u
M1065 control_logic_rw_0/dff_buf_array_0/dff_buf_0_1/dff_0/a_640_672# data_dff_0/clk control_logic_rw_0/dff_buf_array_0/dff_buf_0_1/dff_0/a_560_48# vdd p w=2u l=0.4u
+  ad=0p pd=0u as=6p ps=11.2u
M1066 control_logic_rw_0/dff_buf_array_0/dff_buf_0_1/dff_0/Q control_logic_rw_0/dff_buf_array_0/dff_buf_0_1/dff_0/a_560_48# vdd vdd p w=8u l=0.4u
+  ad=8p pd=18u as=0p ps=0u
M1067 control_logic_rw_0/dff_buf_array_0/dff_buf_0_1/dff_0/a_560_48# control_logic_rw_0/dff_buf_array_0/dff_buf_0_1/dff_0/a_48_48# control_logic_rw_0/dff_buf_array_0/dff_buf_0_1/dff_0/a_520_592# vdd p w=4u l=0.4u
+  ad=0p pd=0u as=2.4p ps=9.2u
M1068 control_logic_rw_0/dff_buf_array_0/dff_buf_0_1/dff_0/a_304_32# control_logic_rw_0/dff_buf_array_0/dff_buf_0_1/dff_0/a_208_48# vdd vdd p w=4u l=0.4u
+  ad=4p pd=10u as=0p ps=0u
M1069 control_logic_rw_0/dff_buf_array_0/dff_buf_0_1/dff_0/a_520_48# control_logic_rw_0/dff_buf_array_0/dff_buf_0_1/dff_0/a_304_32# gnd gnd n w=2u l=0.4u
+  ad=1.2p pd=5.2u as=0p ps=0u
M1070 control_logic_rw_0/dff_buf_array_0/dff_buf_0_1/dff_0/a_560_48# data_dff_0/clk control_logic_rw_0/dff_buf_array_0/dff_buf_0_1/dff_0/a_520_48# gnd n w=2u l=0.4u
+  ad=0p pd=0u as=0p ps=0u
M1071 control_logic_rw_0/dff_buf_array_0/dff_buf_0_1/dff_0/a_280_592# control_logic_rw_0/dff_buf_array_0/dff_buf_0_1/dff_0/a_48_48# control_logic_rw_0/dff_buf_array_0/dff_buf_0_1/dff_0/a_208_48# vdd p w=4u l=0.4u
+  ad=0p pd=0u as=0p ps=0u
M1072 control_logic_rw_0/dff_buf_array_0/dff_buf_0_1/dff_0/a_168_592# csb0 vdd vdd p w=4u l=0.4u
+  ad=0p pd=0u as=0p ps=0u
M1073 control_logic_rw_0/dff_buf_array_0/dff_buf_0_1/dff_0/a_520_592# control_logic_rw_0/dff_buf_array_0/dff_buf_0_1/dff_0/a_304_32# vdd vdd p w=4u l=0.4u
+  ad=0p pd=0u as=0p ps=0u
M1074 control_logic_rw_0/pand2_0/B control_logic_rw_0/dff_buf_array_0/dff_buf_0_1/dff_0/Q vdd vdd p w=3.2u l=0.4u
+  ad=3.84063p pd=8.825u as=0p ps=0u
M1075 control_logic_rw_0/pand2_0/B control_logic_rw_0/dff_buf_array_0/dff_buf_0_1/dff_0/Q gnd gnd n w=1.6u l=0.4u
+  ad=1.92063p pd=5.625u as=0p ps=0u
M1076 control_logic_rw_0/dff_buf_array_0/dout_0 control_logic_rw_0/pand2_0/B gnd gnd n w=3.2u l=0.4u
+  ad=3.84063p pd=8.825u as=0p ps=0u
M1077 control_logic_rw_0/dff_buf_array_0/dout_0 control_logic_rw_0/pand2_0/B vdd vdd p w=6.4u l=0.4u
+  ad=7.68063p pd=15.225u as=0p ps=0u
M1078 control_logic_rw_0/dff_buf_array_0/dff_buf_0_0/dff_0/a_304_32# control_logic_rw_0/dff_buf_array_0/dff_buf_0_0/dff_0/a_208_48# gnd gnd n w=2u l=0.4u
+  ad=2p pd=6u as=0p ps=0u
M1079 control_logic_rw_0/dff_buf_array_0/dff_buf_0_0/dff_0/a_640_48# control_logic_rw_0/dff_buf_array_0/dff_buf_0_0/dff_0/a_48_48# control_logic_rw_0/dff_buf_array_0/dff_buf_0_0/dff_0/a_560_48# gnd n w=2u l=0.4u
+  ad=1.2p pd=5.2u as=3.2p ps=7.2u
M1080 gnd control_logic_rw_0/dff_buf_array_0/dff_buf_0_0/dff_0/Q control_logic_rw_0/dff_buf_array_0/dff_buf_0_0/dff_0/a_640_48# gnd n w=2u l=0.4u
+  ad=0p pd=0u as=0p ps=0u
M1081 control_logic_rw_0/dff_buf_array_0/dff_buf_0_0/dff_0/a_280_48# data_dff_0/clk control_logic_rw_0/dff_buf_array_0/dff_buf_0_0/dff_0/a_208_48# gnd n w=2u l=0.4u
+  ad=1.2p pd=5.2u as=2.8p ps=6.8u
M1082 vdd data_dff_0/clk control_logic_rw_0/dff_buf_array_0/dff_buf_0_0/dff_0/a_48_48# vdd p w=8u l=0.4u
+  ad=0p pd=0u as=8p ps=18u
M1083 gnd data_dff_0/clk control_logic_rw_0/dff_buf_array_0/dff_buf_0_0/dff_0/a_48_48# gnd n w=4u l=0.4u
+  ad=0p pd=0u as=4p ps=10u
M1084 control_logic_rw_0/dff_buf_array_0/dff_buf_0_0/dff_0/a_168_48# web0 gnd gnd n w=2u l=0.4u
+  ad=1.2p pd=5.2u as=0p ps=0u
M1085 control_logic_rw_0/dff_buf_array_0/dff_buf_0_0/dff_0/a_208_48# control_logic_rw_0/dff_buf_array_0/dff_buf_0_0/dff_0/a_48_48# control_logic_rw_0/dff_buf_array_0/dff_buf_0_0/dff_0/a_168_48# gnd n w=2u l=0.4u
+  ad=0p pd=0u as=0p ps=0u
M1086 gnd control_logic_rw_0/dff_buf_array_0/dff_buf_0_0/dff_0/a_304_32# control_logic_rw_0/dff_buf_array_0/dff_buf_0_0/dff_0/a_280_48# gnd n w=2u l=0.4u
+  ad=0p pd=0u as=0p ps=0u
M1087 control_logic_rw_0/dff_buf_array_0/dff_buf_0_0/dff_0/Q control_logic_rw_0/dff_buf_array_0/dff_buf_0_0/dff_0/a_560_48# gnd gnd n w=4u l=0.4u
+  ad=4p pd=10u as=0p ps=0u
M1088 vdd control_logic_rw_0/dff_buf_array_0/dff_buf_0_0/dff_0/Q control_logic_rw_0/dff_buf_array_0/dff_buf_0_0/dff_0/a_640_672# vdd p w=2u l=0.4u
+  ad=0p pd=0u as=1.2p ps=5.2u
M1089 vdd control_logic_rw_0/dff_buf_array_0/dff_buf_0_0/dff_0/a_304_32# control_logic_rw_0/dff_buf_array_0/dff_buf_0_0/dff_0/a_280_592# vdd p w=4u l=0.4u
+  ad=0p pd=0u as=3.2p ps=9.6u
M1090 control_logic_rw_0/dff_buf_array_0/dff_buf_0_0/dff_0/a_208_48# data_dff_0/clk control_logic_rw_0/dff_buf_array_0/dff_buf_0_0/dff_0/a_168_592# vdd p w=4u l=0.4u
+  ad=4.8p pd=10.4u as=3.2p ps=9.6u
M1091 control_logic_rw_0/dff_buf_array_0/dff_buf_0_0/dff_0/a_640_672# data_dff_0/clk control_logic_rw_0/dff_buf_array_0/dff_buf_0_0/dff_0/a_560_48# vdd p w=2u l=0.4u
+  ad=0p pd=0u as=6p ps=11.2u
M1092 control_logic_rw_0/dff_buf_array_0/dff_buf_0_0/dff_0/Q control_logic_rw_0/dff_buf_array_0/dff_buf_0_0/dff_0/a_560_48# vdd vdd p w=8u l=0.4u
+  ad=8p pd=18u as=0p ps=0u
M1093 control_logic_rw_0/dff_buf_array_0/dff_buf_0_0/dff_0/a_560_48# control_logic_rw_0/dff_buf_array_0/dff_buf_0_0/dff_0/a_48_48# control_logic_rw_0/dff_buf_array_0/dff_buf_0_0/dff_0/a_520_592# vdd p w=4u l=0.4u
+  ad=0p pd=0u as=2.4p ps=9.2u
M1094 control_logic_rw_0/dff_buf_array_0/dff_buf_0_0/dff_0/a_304_32# control_logic_rw_0/dff_buf_array_0/dff_buf_0_0/dff_0/a_208_48# vdd vdd p w=4u l=0.4u
+  ad=4p pd=10u as=0p ps=0u
M1095 control_logic_rw_0/dff_buf_array_0/dff_buf_0_0/dff_0/a_520_48# control_logic_rw_0/dff_buf_array_0/dff_buf_0_0/dff_0/a_304_32# gnd gnd n w=2u l=0.4u
+  ad=1.2p pd=5.2u as=0p ps=0u
M1096 control_logic_rw_0/dff_buf_array_0/dff_buf_0_0/dff_0/a_560_48# data_dff_0/clk control_logic_rw_0/dff_buf_array_0/dff_buf_0_0/dff_0/a_520_48# gnd n w=2u l=0.4u
+  ad=0p pd=0u as=0p ps=0u
M1097 control_logic_rw_0/dff_buf_array_0/dff_buf_0_0/dff_0/a_280_592# control_logic_rw_0/dff_buf_array_0/dff_buf_0_0/dff_0/a_48_48# control_logic_rw_0/dff_buf_array_0/dff_buf_0_0/dff_0/a_208_48# vdd p w=4u l=0.4u
+  ad=0p pd=0u as=0p ps=0u
M1098 control_logic_rw_0/dff_buf_array_0/dff_buf_0_0/dff_0/a_168_592# web0 vdd vdd p w=4u l=0.4u
+  ad=0p pd=0u as=0p ps=0u
M1099 control_logic_rw_0/dff_buf_array_0/dff_buf_0_0/dff_0/a_520_592# control_logic_rw_0/dff_buf_array_0/dff_buf_0_0/dff_0/a_304_32# vdd vdd p w=4u l=0.4u
+  ad=0p pd=0u as=0p ps=0u
M1100 control_logic_rw_0/pand3_0/A control_logic_rw_0/dff_buf_array_0/dff_buf_0_0/dff_0/Q vdd vdd p w=3.2u l=0.4u
+  ad=3.84063p pd=8.825u as=0p ps=0u
M1101 control_logic_rw_0/pand3_0/A control_logic_rw_0/dff_buf_array_0/dff_buf_0_0/dff_0/Q gnd gnd n w=1.6u l=0.4u
+  ad=1.92063p pd=5.625u as=0p ps=0u
M1102 control_logic_rw_0/pand3_0_0/C control_logic_rw_0/pand3_0/A gnd gnd n w=3.2u l=0.4u
+  ad=3.84063p pd=8.825u as=0p ps=0u
M1103 control_logic_rw_0/pand3_0_0/C control_logic_rw_0/pand3_0/A vdd vdd p w=6.4u l=0.4u
+  ad=7.68063p pd=15.225u as=0p ps=0u
M1104 control_logic_rw_0/pand3_0/pnand3_0_0/nmos_m1_w1_600_sactive_dm1_0/S control_logic_rw_0/pand3_0/B control_logic_rw_0/pand3_0/pnand3_0_0/nmos_m1_w1_600_sm1_dactive_0/D gnd n w=1.6u l=0.4u
+  ad=2.56063p pd=6.425u as=2.56063p ps=6.425u
M1105 control_logic_rw_0/pand3_0/pnand3_0_0/nmos_m1_w1_600_sm1_dactive_0/D control_logic_rw_0/pand3_0/A gnd gnd n w=1.6u l=0.4u
+  ad=0p pd=0u as=0p ps=0u
M1106 control_logic_rw_0/pand3_0/pnand3_0_0/Z control_logic_rw_0/pand2_1/Z control_logic_rw_0/pand3_0/pnand3_0_0/nmos_m1_w1_600_sactive_dm1_0/S gnd n w=1.6u l=0.4u
+  ad=1.92063p pd=5.625u as=0p ps=0u
M1107 vdd control_logic_rw_0/pand3_0/B control_logic_rw_0/pand3_0/pnand3_0_0/Z vdd p w=1.6u l=0.4u
+  ad=0p pd=0u as=5.76188p ps=12.1u
M1108 control_logic_rw_0/pand3_0/pnand3_0_0/Z control_logic_rw_0/pand2_1/Z vdd vdd p w=1.6u l=0.4u
+  ad=0p pd=0u as=0p ps=0u
M1109 control_logic_rw_0/pand3_0/pnand3_0_0/Z control_logic_rw_0/pand3_0/A vdd vdd p w=1.6u l=0.4u
+  ad=0p pd=0u as=0p ps=0u
M1110 bank_0/w_en0 control_logic_rw_0/pand3_0/pnand3_0_0/Z vdd vdd p w=8u l=0.4u
+  ad=9.60063p pd=18.425u as=0p ps=0u
M1111 vdd control_logic_rw_0/pand3_0/pnand3_0_0/Z bank_0/w_en0 vdd p w=8u l=0.4u
+  ad=0p pd=0u as=0p ps=0u
M1112 bank_0/w_en0 control_logic_rw_0/pand3_0/pnand3_0_0/Z gnd gnd n w=4u l=0.4u
+  ad=4.80063p pd=10.425u as=0p ps=0u
M1113 gnd control_logic_rw_0/pand3_0/pnand3_0_0/Z bank_0/w_en0 gnd n w=4u l=0.4u
+  ad=0p pd=0u as=0p ps=0u
M1114 control_logic_rw_0/pdriver_1_0/pinv_5_0/A control_logic_rw_0/pdriver_1_0/pinv_9_0/A vdd vdd p w=1.6u l=0.4u
+  ad=1.92063p pd=5.625u as=0p ps=0u
M1115 control_logic_rw_0/pdriver_1_0/pinv_5_0/A control_logic_rw_0/pdriver_1_0/pinv_9_0/A gnd gnd n w=0.8u l=0.4u
+  ad=0.960625p pd=4.025u as=0p ps=0u
M1116 bank_0/wl_en0 control_logic_rw_0/pdriver_1_0/pinv_7_0/A gnd gnd n w=4u l=0.4u
+  ad=4.80063p pd=10.425u as=0p ps=0u
M1117 bank_0/wl_en0 control_logic_rw_0/pdriver_1_0/pinv_7_0/A vdd vdd p w=8u l=0.4u
+  ad=9.60063p pd=18.425u as=0p ps=0u
M1118 control_logic_rw_0/pdriver_1_0/pinv_7_0/A control_logic_rw_0/pdriver_1_0/pinv_5_0/A vdd vdd p w=3.2u l=0.4u
+  ad=3.84063p pd=8.825u as=0p ps=0u
M1119 control_logic_rw_0/pdriver_1_0/pinv_7_0/A control_logic_rw_0/pdriver_1_0/pinv_5_0/A gnd gnd n w=1.6u l=0.4u
+  ad=1.92063p pd=5.625u as=0p ps=0u
M1120 control_logic_rw_0/pdriver_1_0/pinv_9_0/A control_logic_rw_0/pand2_1/Z vdd vdd p w=1.6u l=0.4u
+  ad=1.92063p pd=5.625u as=0p ps=0u
M1121 control_logic_rw_0/pdriver_1_0/pinv_9_0/A control_logic_rw_0/pand2_1/Z gnd gnd n w=0.8u l=0.4u
+  ad=0.960625p pd=4.025u as=0p ps=0u
M1122 control_logic_rw_0/delay_chain_0/pinv_12_12/Z control_logic_rw_0/delay_chain_0/pinv_12_9/A vdd vdd p w=1.6u l=0.4u
+  ad=1.92063p pd=5.625u as=0p ps=0u
M1123 control_logic_rw_0/delay_chain_0/pinv_12_12/Z control_logic_rw_0/delay_chain_0/pinv_12_9/A gnd gnd n w=0.8u l=0.4u
+  ad=0.960625p pd=4.025u as=0p ps=0u
M1124 control_logic_rw_0/delay_chain_0/pinv_12_29/A control_logic_rw_0/delay_chain_0/pinv_12_34/A vdd vdd p w=1.6u l=0.4u
+  ad=1.92063p pd=5.625u as=0p ps=0u
M1125 control_logic_rw_0/delay_chain_0/pinv_12_29/A control_logic_rw_0/delay_chain_0/pinv_12_34/A gnd gnd n w=0.8u l=0.4u
+  ad=0.960625p pd=4.025u as=0p ps=0u
M1126 control_logic_rw_0/delay_chain_0/pinv_12_23/Z control_logic_rw_0/delay_chain_0/pinv_12_19/A vdd vdd p w=1.6u l=0.4u
+  ad=1.92063p pd=5.625u as=0p ps=0u
M1127 control_logic_rw_0/delay_chain_0/pinv_12_23/Z control_logic_rw_0/delay_chain_0/pinv_12_19/A gnd gnd n w=0.8u l=0.4u
+  ad=0.960625p pd=4.025u as=0p ps=0u
M1128 control_logic_rw_0/delay_chain_0/pinv_12_13/Z control_logic_rw_0/delay_chain_0/pinv_12_9/A vdd vdd p w=1.6u l=0.4u
+  ad=1.92063p pd=5.625u as=0p ps=0u
M1129 control_logic_rw_0/delay_chain_0/pinv_12_13/Z control_logic_rw_0/delay_chain_0/pinv_12_9/A gnd gnd n w=0.8u l=0.4u
+  ad=0.960625p pd=4.025u as=0p ps=0u
M1130 control_logic_rw_0/delay_chain_0/pinv_12_35/Z control_logic_rw_0/delay_chain_0/pinv_12_34/A vdd vdd p w=1.6u l=0.4u
+  ad=1.92063p pd=5.625u as=0p ps=0u
M1131 control_logic_rw_0/delay_chain_0/pinv_12_35/Z control_logic_rw_0/delay_chain_0/pinv_12_34/A gnd gnd n w=0.8u l=0.4u
+  ad=0.960625p pd=4.025u as=0p ps=0u
M1132 control_logic_rw_0/delay_chain_0/pinv_12_19/A control_logic_rw_0/delay_chain_0/pinv_12_24/A vdd vdd p w=1.6u l=0.4u
+  ad=1.92063p pd=5.625u as=0p ps=0u
M1133 control_logic_rw_0/delay_chain_0/pinv_12_19/A control_logic_rw_0/delay_chain_0/pinv_12_24/A gnd gnd n w=0.8u l=0.4u
+  ad=0.960625p pd=4.025u as=0p ps=0u
M1134 control_logic_rw_0/delay_chain_0/pinv_12_9/A control_logic_rw_0/delay_chain_0/pinv_12_14/A vdd vdd p w=1.6u l=0.4u
+  ad=1.92063p pd=5.625u as=0p ps=0u
M1135 control_logic_rw_0/delay_chain_0/pinv_12_9/A control_logic_rw_0/delay_chain_0/pinv_12_14/A gnd gnd n w=0.8u l=0.4u
+  ad=0.960625p pd=4.025u as=0p ps=0u
M1136 control_logic_rw_0/delay_chain_0/pinv_12_36/Z control_logic_rw_0/delay_chain_0/pinv_12_34/A vdd vdd p w=1.6u l=0.4u
+  ad=1.92063p pd=5.625u as=0p ps=0u
M1137 control_logic_rw_0/delay_chain_0/pinv_12_36/Z control_logic_rw_0/delay_chain_0/pinv_12_34/A gnd gnd n w=0.8u l=0.4u
+  ad=0.960625p pd=4.025u as=0p ps=0u
M1138 control_logic_rw_0/delay_chain_0/pinv_12_25/Z control_logic_rw_0/delay_chain_0/pinv_12_24/A vdd vdd p w=1.6u l=0.4u
+  ad=1.92063p pd=5.625u as=0p ps=0u
M1139 control_logic_rw_0/delay_chain_0/pinv_12_25/Z control_logic_rw_0/delay_chain_0/pinv_12_24/A gnd gnd n w=0.8u l=0.4u
+  ad=0.960625p pd=4.025u as=0p ps=0u
M1140 control_logic_rw_0/delay_chain_0/pinv_12_15/Z control_logic_rw_0/delay_chain_0/pinv_12_14/A vdd vdd p w=1.6u l=0.4u
+  ad=1.92063p pd=5.625u as=0p ps=0u
M1141 control_logic_rw_0/delay_chain_0/pinv_12_15/Z control_logic_rw_0/delay_chain_0/pinv_12_14/A gnd gnd n w=0.8u l=0.4u
+  ad=0.960625p pd=4.025u as=0p ps=0u
M1142 control_logic_rw_0/delay_chain_0/pinv_12_37/Z control_logic_rw_0/delay_chain_0/pinv_12_34/A vdd vdd p w=1.6u l=0.4u
+  ad=1.92063p pd=5.625u as=0p ps=0u
M1143 control_logic_rw_0/delay_chain_0/pinv_12_37/Z control_logic_rw_0/delay_chain_0/pinv_12_34/A gnd gnd n w=0.8u l=0.4u
+  ad=0.960625p pd=4.025u as=0p ps=0u
M1144 control_logic_rw_0/delay_chain_0/pinv_12_26/Z control_logic_rw_0/delay_chain_0/pinv_12_24/A vdd vdd p w=1.6u l=0.4u
+  ad=1.92063p pd=5.625u as=0p ps=0u
M1145 control_logic_rw_0/delay_chain_0/pinv_12_26/Z control_logic_rw_0/delay_chain_0/pinv_12_24/A gnd gnd n w=0.8u l=0.4u
+  ad=0.960625p pd=4.025u as=0p ps=0u
M1146 control_logic_rw_0/delay_chain_0/pinv_12_16/Z control_logic_rw_0/delay_chain_0/pinv_12_14/A vdd vdd p w=1.6u l=0.4u
+  ad=1.92063p pd=5.625u as=0p ps=0u
M1147 control_logic_rw_0/delay_chain_0/pinv_12_16/Z control_logic_rw_0/delay_chain_0/pinv_12_14/A gnd gnd n w=0.8u l=0.4u
+  ad=0.960625p pd=4.025u as=0p ps=0u
M1148 control_logic_rw_0/delay_chain_0/pinv_12_38/Z control_logic_rw_0/delay_chain_0/pinv_12_34/A vdd vdd p w=1.6u l=0.4u
+  ad=1.92063p pd=5.625u as=0p ps=0u
M1149 control_logic_rw_0/delay_chain_0/pinv_12_38/Z control_logic_rw_0/delay_chain_0/pinv_12_34/A gnd gnd n w=0.8u l=0.4u
+  ad=0.960625p pd=4.025u as=0p ps=0u
M1150 control_logic_rw_0/delay_chain_0/pinv_12_27/Z control_logic_rw_0/delay_chain_0/pinv_12_24/A vdd vdd p w=1.6u l=0.4u
+  ad=1.92063p pd=5.625u as=0p ps=0u
M1151 control_logic_rw_0/delay_chain_0/pinv_12_27/Z control_logic_rw_0/delay_chain_0/pinv_12_24/A gnd gnd n w=0.8u l=0.4u
+  ad=0.960625p pd=4.025u as=0p ps=0u
M1152 control_logic_rw_0/delay_chain_0/pinv_12_17/Z control_logic_rw_0/delay_chain_0/pinv_12_14/A vdd vdd p w=1.6u l=0.4u
+  ad=1.92063p pd=5.625u as=0p ps=0u
M1153 control_logic_rw_0/delay_chain_0/pinv_12_17/Z control_logic_rw_0/delay_chain_0/pinv_12_14/A gnd gnd n w=0.8u l=0.4u
+  ad=0.960625p pd=4.025u as=0p ps=0u
M1154 control_logic_rw_0/delay_chain_0/pinv_12_34/A control_logic_rw_0/delay_chain_0/pinv_12_39/A vdd vdd p w=1.6u l=0.4u
+  ad=1.92063p pd=5.625u as=0p ps=0u
M1155 control_logic_rw_0/delay_chain_0/pinv_12_34/A control_logic_rw_0/delay_chain_0/pinv_12_39/A gnd gnd n w=0.8u l=0.4u
+  ad=0.960625p pd=4.025u as=0p ps=0u
M1156 control_logic_rw_0/delay_chain_0/pinv_12_28/Z control_logic_rw_0/delay_chain_0/pinv_12_24/A vdd vdd p w=1.6u l=0.4u
+  ad=1.92063p pd=5.625u as=0p ps=0u
M1157 control_logic_rw_0/delay_chain_0/pinv_12_28/Z control_logic_rw_0/delay_chain_0/pinv_12_24/A gnd gnd n w=0.8u l=0.4u
+  ad=0.960625p pd=4.025u as=0p ps=0u
M1158 control_logic_rw_0/delay_chain_0/pinv_12_18/Z control_logic_rw_0/delay_chain_0/pinv_12_14/A vdd vdd p w=1.6u l=0.4u
+  ad=1.92063p pd=5.625u as=0p ps=0u
M1159 control_logic_rw_0/delay_chain_0/pinv_12_18/Z control_logic_rw_0/delay_chain_0/pinv_12_14/A gnd gnd n w=0.8u l=0.4u
+  ad=0.960625p pd=4.025u as=0p ps=0u
M1160 control_logic_rw_0/delay_chain_0/pinv_12_24/A control_logic_rw_0/delay_chain_0/pinv_12_29/A vdd vdd p w=1.6u l=0.4u
+  ad=1.92063p pd=5.625u as=0p ps=0u
M1161 control_logic_rw_0/delay_chain_0/pinv_12_24/A control_logic_rw_0/delay_chain_0/pinv_12_29/A gnd gnd n w=0.8u l=0.4u
+  ad=0.960625p pd=4.025u as=0p ps=0u
M1162 control_logic_rw_0/delay_chain_0/pinv_12_14/A control_logic_rw_0/delay_chain_0/pinv_12_19/A vdd vdd p w=1.6u l=0.4u
+  ad=1.92063p pd=5.625u as=0p ps=0u
M1163 control_logic_rw_0/delay_chain_0/pinv_12_14/A control_logic_rw_0/delay_chain_0/pinv_12_19/A gnd gnd n w=0.8u l=0.4u
+  ad=0.960625p pd=4.025u as=0p ps=0u
M1164 control_logic_rw_0/delay_chain_0/pinv_12_0/Z control_logic_rw_0/pinv_4_0/A vdd vdd p w=1.6u l=0.4u
+  ad=1.92063p pd=5.625u as=0p ps=0u
M1165 control_logic_rw_0/delay_chain_0/pinv_12_0/Z control_logic_rw_0/pinv_4_0/A gnd gnd n w=0.8u l=0.4u
+  ad=0.960625p pd=4.025u as=0p ps=0u
M1166 control_logic_rw_0/delay_chain_0/pinv_12_1/Z control_logic_rw_0/pinv_4_0/A vdd vdd p w=1.6u l=0.4u
+  ad=1.92063p pd=5.625u as=0p ps=0u
M1167 control_logic_rw_0/delay_chain_0/pinv_12_1/Z control_logic_rw_0/pinv_4_0/A gnd gnd n w=0.8u l=0.4u
+  ad=0.960625p pd=4.025u as=0p ps=0u
M1168 control_logic_rw_0/delay_chain_0/pinv_12_2/Z control_logic_rw_0/pinv_4_0/A vdd vdd p w=1.6u l=0.4u
+  ad=1.92063p pd=5.625u as=0p ps=0u
M1169 control_logic_rw_0/delay_chain_0/pinv_12_2/Z control_logic_rw_0/pinv_4_0/A gnd gnd n w=0.8u l=0.4u
+  ad=0.960625p pd=4.025u as=0p ps=0u
M1170 control_logic_rw_0/delay_chain_0/pinv_12_3/Z control_logic_rw_0/pinv_4_0/A vdd vdd p w=1.6u l=0.4u
+  ad=1.92063p pd=5.625u as=0p ps=0u
M1171 control_logic_rw_0/delay_chain_0/pinv_12_3/Z control_logic_rw_0/pinv_4_0/A gnd gnd n w=0.8u l=0.4u
+  ad=0.960625p pd=4.025u as=0p ps=0u
M1172 control_logic_rw_0/pinv_4_0/A control_logic_rw_0/delay_chain_0/pinv_12_4/A vdd vdd p w=1.6u l=0.4u
+  ad=1.92063p pd=5.625u as=0p ps=0u
M1173 control_logic_rw_0/pinv_4_0/A control_logic_rw_0/delay_chain_0/pinv_12_4/A gnd gnd n w=0.8u l=0.4u
+  ad=0.960625p pd=4.025u as=0p ps=0u
M1174 control_logic_rw_0/delay_chain_0/pinv_12_5/Z control_logic_rw_0/delay_chain_0/pinv_12_4/A vdd vdd p w=1.6u l=0.4u
+  ad=1.92063p pd=5.625u as=0p ps=0u
M1175 control_logic_rw_0/delay_chain_0/pinv_12_5/Z control_logic_rw_0/delay_chain_0/pinv_12_4/A gnd gnd n w=0.8u l=0.4u
+  ad=0.960625p pd=4.025u as=0p ps=0u
M1176 control_logic_rw_0/delay_chain_0/pinv_12_40/Z control_logic_rw_0/delay_chain_0/pinv_12_39/A vdd vdd p w=1.6u l=0.4u
+  ad=1.92063p pd=5.625u as=0p ps=0u
M1177 control_logic_rw_0/delay_chain_0/pinv_12_40/Z control_logic_rw_0/delay_chain_0/pinv_12_39/A gnd gnd n w=0.8u l=0.4u
+  ad=0.960625p pd=4.025u as=0p ps=0u
M1178 control_logic_rw_0/delay_chain_0/pinv_12_6/Z control_logic_rw_0/delay_chain_0/pinv_12_4/A vdd vdd p w=1.6u l=0.4u
+  ad=1.92063p pd=5.625u as=0p ps=0u
M1179 control_logic_rw_0/delay_chain_0/pinv_12_6/Z control_logic_rw_0/delay_chain_0/pinv_12_4/A gnd gnd n w=0.8u l=0.4u
+  ad=0.960625p pd=4.025u as=0p ps=0u
M1180 control_logic_rw_0/delay_chain_0/pinv_12_41/Z control_logic_rw_0/delay_chain_0/pinv_12_39/A vdd vdd p w=1.6u l=0.4u
+  ad=1.92063p pd=5.625u as=0p ps=0u
M1181 control_logic_rw_0/delay_chain_0/pinv_12_41/Z control_logic_rw_0/delay_chain_0/pinv_12_39/A gnd gnd n w=0.8u l=0.4u
+  ad=0.960625p pd=4.025u as=0p ps=0u
M1182 control_logic_rw_0/delay_chain_0/pinv_12_30/Z control_logic_rw_0/delay_chain_0/pinv_12_29/A vdd vdd p w=1.6u l=0.4u
+  ad=1.92063p pd=5.625u as=0p ps=0u
M1183 control_logic_rw_0/delay_chain_0/pinv_12_30/Z control_logic_rw_0/delay_chain_0/pinv_12_29/A gnd gnd n w=0.8u l=0.4u
+  ad=0.960625p pd=4.025u as=0p ps=0u
M1184 control_logic_rw_0/delay_chain_0/pinv_12_7/Z control_logic_rw_0/delay_chain_0/pinv_12_4/A vdd vdd p w=1.6u l=0.4u
+  ad=1.92063p pd=5.625u as=0p ps=0u
M1185 control_logic_rw_0/delay_chain_0/pinv_12_7/Z control_logic_rw_0/delay_chain_0/pinv_12_4/A gnd gnd n w=0.8u l=0.4u
+  ad=0.960625p pd=4.025u as=0p ps=0u
M1186 control_logic_rw_0/delay_chain_0/pinv_12_20/Z control_logic_rw_0/delay_chain_0/pinv_12_19/A vdd vdd p w=1.6u l=0.4u
+  ad=1.92063p pd=5.625u as=0p ps=0u
M1187 control_logic_rw_0/delay_chain_0/pinv_12_20/Z control_logic_rw_0/delay_chain_0/pinv_12_19/A gnd gnd n w=0.8u l=0.4u
+  ad=0.960625p pd=4.025u as=0p ps=0u
M1188 control_logic_rw_0/delay_chain_0/pinv_12_42/Z control_logic_rw_0/delay_chain_0/pinv_12_39/A vdd vdd p w=1.6u l=0.4u
+  ad=1.92063p pd=5.625u as=0p ps=0u
M1189 control_logic_rw_0/delay_chain_0/pinv_12_42/Z control_logic_rw_0/delay_chain_0/pinv_12_39/A gnd gnd n w=0.8u l=0.4u
+  ad=0.960625p pd=4.025u as=0p ps=0u
M1190 control_logic_rw_0/delay_chain_0/pinv_12_31/Z control_logic_rw_0/delay_chain_0/pinv_12_29/A vdd vdd p w=1.6u l=0.4u
+  ad=1.92063p pd=5.625u as=0p ps=0u
M1191 control_logic_rw_0/delay_chain_0/pinv_12_31/Z control_logic_rw_0/delay_chain_0/pinv_12_29/A gnd gnd n w=0.8u l=0.4u
+  ad=0.960625p pd=4.025u as=0p ps=0u
M1192 control_logic_rw_0/delay_chain_0/pinv_12_8/Z control_logic_rw_0/delay_chain_0/pinv_12_4/A vdd vdd p w=1.6u l=0.4u
+  ad=1.92063p pd=5.625u as=0p ps=0u
M1193 control_logic_rw_0/delay_chain_0/pinv_12_8/Z control_logic_rw_0/delay_chain_0/pinv_12_4/A gnd gnd n w=0.8u l=0.4u
+  ad=0.960625p pd=4.025u as=0p ps=0u
M1194 control_logic_rw_0/delay_chain_0/pinv_12_10/Z control_logic_rw_0/delay_chain_0/pinv_12_9/A vdd vdd p w=1.6u l=0.4u
+  ad=1.92063p pd=5.625u as=0p ps=0u
M1195 control_logic_rw_0/delay_chain_0/pinv_12_10/Z control_logic_rw_0/delay_chain_0/pinv_12_9/A gnd gnd n w=0.8u l=0.4u
+  ad=0.960625p pd=4.025u as=0p ps=0u