**************************************************
* OpenRAM generated memory.
* Words: 32
* Data bits: 32
* Banks: 1
* Column mux: 1:1
* Trimmed: False
* LVS: False
**************************************************
*********************** "dff" ******************************
* Positive edge-triggered FF
.SUBCKT dff D Q clk vdd gnd

* SPICE3 file created from dff.ext - technology: scmos

M1000 vdd clk a_24_24# vdd p w=8u l=0.4u
M1001 a_84_296# D vdd vdd p w=4u l=0.4u
M1002 a_104_24# clk a_84_296# vdd p w=4u l=0.4u
M1003 a_140_296# a_24_24# a_104_24# vdd p w=4u l=0.4u
M1004 vdd a_152_16# a_140_296# vdd p w=4u l=0.4u
M1005 a_152_16# a_104_24# vdd vdd p w=4u l=0.4u
M1006 a_260_296# a_152_16# vdd vdd p w=4u l=0.4u
M1007 a_280_24# a_24_24# a_260_296# vdd p w=4u l=0.4u
M1008 a_320_336# clk a_280_24# vdd p w=2u l=0.4u
M1009 vdd Q a_320_336# vdd p w=2u l=0.4u
M1010 gnd clk a_24_24# gnd n w=4u l=0.4u
M1011 Q a_280_24# vdd vdd p w=8u l=0.4u
M1012 a_84_24# D gnd gnd n w=2u l=0.4u
M1013 a_104_24# a_24_24# a_84_24# gnd n w=2u l=0.4u
M1014 a_140_24# clk a_104_24# gnd n w=2u l=0.4u
M1015 gnd a_152_16# a_140_24# gnd n w=2u l=0.4u
M1016 a_152_16# a_104_24# gnd gnd n w=2u l=0.4u
M1017 a_260_24# a_152_16# gnd gnd n w=2u l=0.4u
M1018 a_280_24# clk a_260_24# gnd n w=2u l=0.4u
M1019 a_320_24# a_24_24# a_280_24# gnd n w=2u l=0.4u
M1020 gnd Q a_320_24# gnd n w=2u l=0.4u
M1021 Q a_280_24# gnd gnd n w=4u l=0.4u

.ENDS

.SUBCKT row_addr_dff din_0 din_1 din_2 din_3 din_4 dout_0 dout_1 dout_2 dout_3 dout_4 clk vdd gnd
*.PININFO din_0:I din_1:I din_2:I din_3:I din_4:I dout_0:O dout_1:O dout_2:O dout_3:O dout_4:O clk:I vdd:B gnd:B
* INPUT : din_0 
* INPUT : din_1 
* INPUT : din_2 
* INPUT : din_3 
* INPUT : din_4 
* OUTPUT: dout_0 
* OUTPUT: dout_1 
* OUTPUT: dout_2 
* OUTPUT: dout_3 
* OUTPUT: dout_4 
* INPUT : clk 
* POWER : vdd 
* GROUND: gnd 
* rows: 5 cols: 1
Xdff_r0_c0 din_0 dout_0 clk vdd gnd dff
Xdff_r1_c0 din_1 dout_1 clk vdd gnd dff
Xdff_r2_c0 din_2 dout_2 clk vdd gnd dff
Xdff_r3_c0 din_3 dout_3 clk vdd gnd dff
Xdff_r4_c0 din_4 dout_4 clk vdd gnd dff
.ENDS row_addr_dff

*********************** "cell_1rw" ******************************
.SUBCKT cell_1rw bl br wl vdd gnd
* SPICE3 file created from cell_1rw.ext - technology: scmos

* Inverter 1
M1000 Q Q_bar vdd vdd p w=0.6u l=0.8u
M1002 Q Q_bar gnd gnd n w=1.6u l=0.4u

* Inverter 2
M1001 vdd Q Q_bar vdd p w=0.6u l=0.8u
M1003 gnd Q Q_bar gnd n w=1.6u l=0.4u

* Access transistors
M1004 Q wl bl gnd n w=0.8u l=0.4u
M1005 Q_bar wl br gnd n w=0.8u l=0.4u

.ENDS

.SUBCKT bitcell_array bl_0_0 br_0_0 bl_0_1 br_0_1 bl_0_2 br_0_2 bl_0_3 br_0_3 bl_0_4 br_0_4 bl_0_5 br_0_5 bl_0_6 br_0_6 bl_0_7 br_0_7 bl_0_8 br_0_8 bl_0_9 br_0_9 bl_0_10 br_0_10 bl_0_11 br_0_11 bl_0_12 br_0_12 bl_0_13 br_0_13 bl_0_14 br_0_14 bl_0_15 br_0_15 bl_0_16 br_0_16 bl_0_17 br_0_17 bl_0_18 br_0_18 bl_0_19 br_0_19 bl_0_20 br_0_20 bl_0_21 br_0_21 bl_0_22 br_0_22 bl_0_23 br_0_23 bl_0_24 br_0_24 bl_0_25 br_0_25 bl_0_26 br_0_26 bl_0_27 br_0_27 bl_0_28 br_0_28 bl_0_29 br_0_29 bl_0_30 br_0_30 bl_0_31 br_0_31 wl_0_0 wl_0_1 wl_0_2 wl_0_3 wl_0_4 wl_0_5 wl_0_6 wl_0_7 wl_0_8 wl_0_9 wl_0_10 wl_0_11 wl_0_12 wl_0_13 wl_0_14 wl_0_15 wl_0_16 wl_0_17 wl_0_18 wl_0_19 wl_0_20 wl_0_21 wl_0_22 wl_0_23 wl_0_24 wl_0_25 wl_0_26 wl_0_27 wl_0_28 wl_0_29 wl_0_30 wl_0_31 vdd gnd
*.PININFO bl_0_0:B br_0_0:B bl_0_1:B br_0_1:B bl_0_2:B br_0_2:B bl_0_3:B br_0_3:B bl_0_4:B br_0_4:B bl_0_5:B br_0_5:B bl_0_6:B br_0_6:B bl_0_7:B br_0_7:B bl_0_8:B br_0_8:B bl_0_9:B br_0_9:B bl_0_10:B br_0_10:B bl_0_11:B br_0_11:B bl_0_12:B br_0_12:B bl_0_13:B br_0_13:B bl_0_14:B br_0_14:B bl_0_15:B br_0_15:B bl_0_16:B br_0_16:B bl_0_17:B br_0_17:B bl_0_18:B br_0_18:B bl_0_19:B br_0_19:B bl_0_20:B br_0_20:B bl_0_21:B br_0_21:B bl_0_22:B br_0_22:B bl_0_23:B br_0_23:B bl_0_24:B br_0_24:B bl_0_25:B br_0_25:B bl_0_26:B br_0_26:B bl_0_27:B br_0_27:B bl_0_28:B br_0_28:B bl_0_29:B br_0_29:B bl_0_30:B br_0_30:B bl_0_31:B br_0_31:B wl_0_0:I wl_0_1:I wl_0_2:I wl_0_3:I wl_0_4:I wl_0_5:I wl_0_6:I wl_0_7:I wl_0_8:I wl_0_9:I wl_0_10:I wl_0_11:I wl_0_12:I wl_0_13:I wl_0_14:I wl_0_15:I wl_0_16:I wl_0_17:I wl_0_18:I wl_0_19:I wl_0_20:I wl_0_21:I wl_0_22:I wl_0_23:I wl_0_24:I wl_0_25:I wl_0_26:I wl_0_27:I wl_0_28:I wl_0_29:I wl_0_30:I wl_0_31:I vdd:B gnd:B
* INOUT : bl_0_0 
* INOUT : br_0_0 
* INOUT : bl_0_1 
* INOUT : br_0_1 
* INOUT : bl_0_2 
* INOUT : br_0_2 
* INOUT : bl_0_3 
* INOUT : br_0_3 
* INOUT : bl_0_4 
* INOUT : br_0_4 
* INOUT : bl_0_5 
* INOUT : br_0_5 
* INOUT : bl_0_6 
* INOUT : br_0_6 
* INOUT : bl_0_7 
* INOUT : br_0_7 
* INOUT : bl_0_8 
* INOUT : br_0_8 
* INOUT : bl_0_9 
* INOUT : br_0_9 
* INOUT : bl_0_10 
* INOUT : br_0_10 
* INOUT : bl_0_11 
* INOUT : br_0_11 
* INOUT : bl_0_12 
* INOUT : br_0_12 
* INOUT : bl_0_13 
* INOUT : br_0_13 
* INOUT : bl_0_14 
* INOUT : br_0_14 
* INOUT : bl_0_15 
* INOUT : br_0_15 
* INOUT : bl_0_16 
* INOUT : br_0_16 
* INOUT : bl_0_17 
* INOUT : br_0_17 
* INOUT : bl_0_18 
* INOUT : br_0_18 
* INOUT : bl_0_19 
* INOUT : br_0_19 
* INOUT : bl_0_20 
* INOUT : br_0_20 
* INOUT : bl_0_21 
* INOUT : br_0_21 
* INOUT : bl_0_22 
* INOUT : br_0_22 
* INOUT : bl_0_23 
* INOUT : br_0_23 
* INOUT : bl_0_24 
* INOUT : br_0_24 
* INOUT : bl_0_25 
* INOUT : br_0_25 
* INOUT : bl_0_26 
* INOUT : br_0_26 
* INOUT : bl_0_27 
* INOUT : br_0_27 
* INOUT : bl_0_28 
* INOUT : br_0_28 
* INOUT : bl_0_29 
* INOUT : br_0_29 
* INOUT : bl_0_30 
* INOUT : br_0_30 
* INOUT : bl_0_31 
* INOUT : br_0_31 
* INPUT : wl_0_0 
* INPUT : wl_0_1 
* INPUT : wl_0_2 
* INPUT : wl_0_3 
* INPUT : wl_0_4 
* INPUT : wl_0_5 
* INPUT : wl_0_6 
* INPUT : wl_0_7 
* INPUT : wl_0_8 
* INPUT : wl_0_9 
* INPUT : wl_0_10 
* INPUT : wl_0_11 
* INPUT : wl_0_12 
* INPUT : wl_0_13 
* INPUT : wl_0_14 
* INPUT : wl_0_15 
* INPUT : wl_0_16 
* INPUT : wl_0_17 
* INPUT : wl_0_18 
* INPUT : wl_0_19 
* INPUT : wl_0_20 
* INPUT : wl_0_21 
* INPUT : wl_0_22 
* INPUT : wl_0_23 
* INPUT : wl_0_24 
* INPUT : wl_0_25 
* INPUT : wl_0_26 
* INPUT : wl_0_27 
* INPUT : wl_0_28 
* INPUT : wl_0_29 
* INPUT : wl_0_30 
* INPUT : wl_0_31 
* POWER : vdd 
* GROUND: gnd 
* rows: 32 cols: 32
Xbit_r0_c0 bl_0_0 br_0_0 wl_0_0 vdd gnd cell_1rw
Xbit_r1_c0 bl_0_0 br_0_0 wl_0_1 vdd gnd cell_1rw
Xbit_r2_c0 bl_0_0 br_0_0 wl_0_2 vdd gnd cell_1rw
Xbit_r3_c0 bl_0_0 br_0_0 wl_0_3 vdd gnd cell_1rw
Xbit_r4_c0 bl_0_0 br_0_0 wl_0_4 vdd gnd cell_1rw
Xbit_r5_c0 bl_0_0 br_0_0 wl_0_5 vdd gnd cell_1rw
Xbit_r6_c0 bl_0_0 br_0_0 wl_0_6 vdd gnd cell_1rw
Xbit_r7_c0 bl_0_0 br_0_0 wl_0_7 vdd gnd cell_1rw
Xbit_r8_c0 bl_0_0 br_0_0 wl_0_8 vdd gnd cell_1rw
Xbit_r9_c0 bl_0_0 br_0_0 wl_0_9 vdd gnd cell_1rw
Xbit_r10_c0 bl_0_0 br_0_0 wl_0_10 vdd gnd cell_1rw
Xbit_r11_c0 bl_0_0 br_0_0 wl_0_11 vdd gnd cell_1rw
Xbit_r12_c0 bl_0_0 br_0_0 wl_0_12 vdd gnd cell_1rw
Xbit_r13_c0 bl_0_0 br_0_0 wl_0_13 vdd gnd cell_1rw
Xbit_r14_c0 bl_0_0 br_0_0 wl_0_14 vdd gnd cell_1rw
Xbit_r15_c0 bl_0_0 br_0_0 wl_0_15 vdd gnd cell_1rw
Xbit_r16_c0 bl_0_0 br_0_0 wl_0_16 vdd gnd cell_1rw
Xbit_r17_c0 bl_0_0 br_0_0 wl_0_17 vdd gnd cell_1rw
Xbit_r18_c0 bl_0_0 br_0_0 wl_0_18 vdd gnd cell_1rw
Xbit_r19_c0 bl_0_0 br_0_0 wl_0_19 vdd gnd cell_1rw
Xbit_r20_c0 bl_0_0 br_0_0 wl_0_20 vdd gnd cell_1rw
Xbit_r21_c0 bl_0_0 br_0_0 wl_0_21 vdd gnd cell_1rw
Xbit_r22_c0 bl_0_0 br_0_0 wl_0_22 vdd gnd cell_1rw
Xbit_r23_c0 bl_0_0 br_0_0 wl_0_23 vdd gnd cell_1rw
Xbit_r24_c0 bl_0_0 br_0_0 wl_0_24 vdd gnd cell_1rw
Xbit_r25_c0 bl_0_0 br_0_0 wl_0_25 vdd gnd cell_1rw
Xbit_r26_c0 bl_0_0 br_0_0 wl_0_26 vdd gnd cell_1rw
Xbit_r27_c0 bl_0_0 br_0_0 wl_0_27 vdd gnd cell_1rw
Xbit_r28_c0 bl_0_0 br_0_0 wl_0_28 vdd gnd cell_1rw
Xbit_r29_c0 bl_0_0 br_0_0 wl_0_29 vdd gnd cell_1rw
Xbit_r30_c0 bl_0_0 br_0_0 wl_0_30 vdd gnd cell_1rw
Xbit_r31_c0 bl_0_0 br_0_0 wl_0_31 vdd gnd cell_1rw
Xbit_r0_c1 bl_0_1 br_0_1 wl_0_0 vdd gnd cell_1rw
Xbit_r1_c1 bl_0_1 br_0_1 wl_0_1 vdd gnd cell_1rw
Xbit_r2_c1 bl_0_1 br_0_1 wl_0_2 vdd gnd cell_1rw
Xbit_r3_c1 bl_0_1 br_0_1 wl_0_3 vdd gnd cell_1rw
Xbit_r4_c1 bl_0_1 br_0_1 wl_0_4 vdd gnd cell_1rw
Xbit_r5_c1 bl_0_1 br_0_1 wl_0_5 vdd gnd cell_1rw
Xbit_r6_c1 bl_0_1 br_0_1 wl_0_6 vdd gnd cell_1rw
Xbit_r7_c1 bl_0_1 br_0_1 wl_0_7 vdd gnd cell_1rw
Xbit_r8_c1 bl_0_1 br_0_1 wl_0_8 vdd gnd cell_1rw
Xbit_r9_c1 bl_0_1 br_0_1 wl_0_9 vdd gnd cell_1rw
Xbit_r10_c1 bl_0_1 br_0_1 wl_0_10 vdd gnd cell_1rw
Xbit_r11_c1 bl_0_1 br_0_1 wl_0_11 vdd gnd cell_1rw
Xbit_r12_c1 bl_0_1 br_0_1 wl_0_12 vdd gnd cell_1rw
Xbit_r13_c1 bl_0_1 br_0_1 wl_0_13 vdd gnd cell_1rw
Xbit_r14_c1 bl_0_1 br_0_1 wl_0_14 vdd gnd cell_1rw
Xbit_r15_c1 bl_0_1 br_0_1 wl_0_15 vdd gnd cell_1rw
Xbit_r16_c1 bl_0_1 br_0_1 wl_0_16 vdd gnd cell_1rw
Xbit_r17_c1 bl_0_1 br_0_1 wl_0_17 vdd gnd cell_1rw
Xbit_r18_c1 bl_0_1 br_0_1 wl_0_18 vdd gnd cell_1rw
Xbit_r19_c1 bl_0_1 br_0_1 wl_0_19 vdd gnd cell_1rw
Xbit_r20_c1 bl_0_1 br_0_1 wl_0_20 vdd gnd cell_1rw
Xbit_r21_c1 bl_0_1 br_0_1 wl_0_21 vdd gnd cell_1rw
Xbit_r22_c1 bl_0_1 br_0_1 wl_0_22 vdd gnd cell_1rw
Xbit_r23_c1 bl_0_1 br_0_1 wl_0_23 vdd gnd cell_1rw
Xbit_r24_c1 bl_0_1 br_0_1 wl_0_24 vdd gnd cell_1rw
Xbit_r25_c1 bl_0_1 br_0_1 wl_0_25 vdd gnd cell_1rw
Xbit_r26_c1 bl_0_1 br_0_1 wl_0_26 vdd gnd cell_1rw
Xbit_r27_c1 bl_0_1 br_0_1 wl_0_27 vdd gnd cell_1rw
Xbit_r28_c1 bl_0_1 br_0_1 wl_0_28 vdd gnd cell_1rw
Xbit_r29_c1 bl_0_1 br_0_1 wl_0_29 vdd gnd cell_1rw
Xbit_r30_c1 bl_0_1 br_0_1 wl_0_30 vdd gnd cell_1rw
Xbit_r31_c1 bl_0_1 br_0_1 wl_0_31 vdd gnd cell_1rw
Xbit_r0_c2 bl_0_2 br_0_2 wl_0_0 vdd gnd cell_1rw
Xbit_r1_c2 bl_0_2 br_0_2 wl_0_1 vdd gnd cell_1rw
Xbit_r2_c2 bl_0_2 br_0_2 wl_0_2 vdd gnd cell_1rw
Xbit_r3_c2 bl_0_2 br_0_2 wl_0_3 vdd gnd cell_1rw
Xbit_r4_c2 bl_0_2 br_0_2 wl_0_4 vdd gnd cell_1rw
Xbit_r5_c2 bl_0_2 br_0_2 wl_0_5 vdd gnd cell_1rw
Xbit_r6_c2 bl_0_2 br_0_2 wl_0_6 vdd gnd cell_1rw
Xbit_r7_c2 bl_0_2 br_0_2 wl_0_7 vdd gnd cell_1rw
Xbit_r8_c2 bl_0_2 br_0_2 wl_0_8 vdd gnd cell_1rw
Xbit_r9_c2 bl_0_2 br_0_2 wl_0_9 vdd gnd cell_1rw
Xbit_r10_c2 bl_0_2 br_0_2 wl_0_10 vdd gnd cell_1rw
Xbit_r11_c2 bl_0_2 br_0_2 wl_0_11 vdd gnd cell_1rw
Xbit_r12_c2 bl_0_2 br_0_2 wl_0_12 vdd gnd cell_1rw
Xbit_r13_c2 bl_0_2 br_0_2 wl_0_13 vdd gnd cell_1rw
Xbit_r14_c2 bl_0_2 br_0_2 wl_0_14 vdd gnd cell_1rw
Xbit_r15_c2 bl_0_2 br_0_2 wl_0_15 vdd gnd cell_1rw
Xbit_r16_c2 bl_0_2 br_0_2 wl_0_16 vdd gnd cell_1rw
Xbit_r17_c2 bl_0_2 br_0_2 wl_0_17 vdd gnd cell_1rw
Xbit_r18_c2 bl_0_2 br_0_2 wl_0_18 vdd gnd cell_1rw
Xbit_r19_c2 bl_0_2 br_0_2 wl_0_19 vdd gnd cell_1rw
Xbit_r20_c2 bl_0_2 br_0_2 wl_0_20 vdd gnd cell_1rw
Xbit_r21_c2 bl_0_2 br_0_2 wl_0_21 vdd gnd cell_1rw
Xbit_r22_c2 bl_0_2 br_0_2 wl_0_22 vdd gnd cell_1rw
Xbit_r23_c2 bl_0_2 br_0_2 wl_0_23 vdd gnd cell_1rw
Xbit_r24_c2 bl_0_2 br_0_2 wl_0_24 vdd gnd cell_1rw
Xbit_r25_c2 bl_0_2 br_0_2 wl_0_25 vdd gnd cell_1rw
Xbit_r26_c2 bl_0_2 br_0_2 wl_0_26 vdd gnd cell_1rw
Xbit_r27_c2 bl_0_2 br_0_2 wl_0_27 vdd gnd cell_1rw
Xbit_r28_c2 bl_0_2 br_0_2 wl_0_28 vdd gnd cell_1rw
Xbit_r29_c2 bl_0_2 br_0_2 wl_0_29 vdd gnd cell_1rw
Xbit_r30_c2 bl_0_2 br_0_2 wl_0_30 vdd gnd cell_1rw
Xbit_r31_c2 bl_0_2 br_0_2 wl_0_31 vdd gnd cell_1rw
Xbit_r0_c3 bl_0_3 br_0_3 wl_0_0 vdd gnd cell_1rw
Xbit_r1_c3 bl_0_3 br_0_3 wl_0_1 vdd gnd cell_1rw
Xbit_r2_c3 bl_0_3 br_0_3 wl_0_2 vdd gnd cell_1rw
Xbit_r3_c3 bl_0_3 br_0_3 wl_0_3 vdd gnd cell_1rw
Xbit_r4_c3 bl_0_3 br_0_3 wl_0_4 vdd gnd cell_1rw
Xbit_r5_c3 bl_0_3 br_0_3 wl_0_5 vdd gnd cell_1rw
Xbit_r6_c3 bl_0_3 br_0_3 wl_0_6 vdd gnd cell_1rw
Xbit_r7_c3 bl_0_3 br_0_3 wl_0_7 vdd gnd cell_1rw
Xbit_r8_c3 bl_0_3 br_0_3 wl_0_8 vdd gnd cell_1rw
Xbit_r9_c3 bl_0_3 br_0_3 wl_0_9 vdd gnd cell_1rw
Xbit_r10_c3 bl_0_3 br_0_3 wl_0_10 vdd gnd cell_1rw
Xbit_r11_c3 bl_0_3 br_0_3 wl_0_11 vdd gnd cell_1rw
Xbit_r12_c3 bl_0_3 br_0_3 wl_0_12 vdd gnd cell_1rw
Xbit_r13_c3 bl_0_3 br_0_3 wl_0_13 vdd gnd cell_1rw
Xbit_r14_c3 bl_0_3 br_0_3 wl_0_14 vdd gnd cell_1rw
Xbit_r15_c3 bl_0_3 br_0_3 wl_0_15 vdd gnd cell_1rw
Xbit_r16_c3 bl_0_3 br_0_3 wl_0_16 vdd gnd cell_1rw
Xbit_r17_c3 bl_0_3 br_0_3 wl_0_17 vdd gnd cell_1rw
Xbit_r18_c3 bl_0_3 br_0_3 wl_0_18 vdd gnd cell_1rw
Xbit_r19_c3 bl_0_3 br_0_3 wl_0_19 vdd gnd cell_1rw
Xbit_r20_c3 bl_0_3 br_0_3 wl_0_20 vdd gnd cell_1rw
Xbit_r21_c3 bl_0_3 br_0_3 wl_0_21 vdd gnd cell_1rw
Xbit_r22_c3 bl_0_3 br_0_3 wl_0_22 vdd gnd cell_1rw
Xbit_r23_c3 bl_0_3 br_0_3 wl_0_23 vdd gnd cell_1rw
Xbit_r24_c3 bl_0_3 br_0_3 wl_0_24 vdd gnd cell_1rw
Xbit_r25_c3 bl_0_3 br_0_3 wl_0_25 vdd gnd cell_1rw
Xbit_r26_c3 bl_0_3 br_0_3 wl_0_26 vdd gnd cell_1rw
Xbit_r27_c3 bl_0_3 br_0_3 wl_0_27 vdd gnd cell_1rw
Xbit_r28_c3 bl_0_3 br_0_3 wl_0_28 vdd gnd cell_1rw
Xbit_r29_c3 bl_0_3 br_0_3 wl_0_29 vdd gnd cell_1rw
Xbit_r30_c3 bl_0_3 br_0_3 wl_0_30 vdd gnd cell_1rw
Xbit_r31_c3 bl_0_3 br_0_3 wl_0_31 vdd gnd cell_1rw
Xbit_r0_c4 bl_0_4 br_0_4 wl_0_0 vdd gnd cell_1rw
Xbit_r1_c4 bl_0_4 br_0_4 wl_0_1 vdd gnd cell_1rw
Xbit_r2_c4 bl_0_4 br_0_4 wl_0_2 vdd gnd cell_1rw
Xbit_r3_c4 bl_0_4 br_0_4 wl_0_3 vdd gnd cell_1rw
Xbit_r4_c4 bl_0_4 br_0_4 wl_0_4 vdd gnd cell_1rw
Xbit_r5_c4 bl_0_4 br_0_4 wl_0_5 vdd gnd cell_1rw
Xbit_r6_c4 bl_0_4 br_0_4 wl_0_6 vdd gnd cell_1rw
Xbit_r7_c4 bl_0_4 br_0_4 wl_0_7 vdd gnd cell_1rw
Xbit_r8_c4 bl_0_4 br_0_4 wl_0_8 vdd gnd cell_1rw
Xbit_r9_c4 bl_0_4 br_0_4 wl_0_9 vdd gnd cell_1rw
Xbit_r10_c4 bl_0_4 br_0_4 wl_0_10 vdd gnd cell_1rw
Xbit_r11_c4 bl_0_4 br_0_4 wl_0_11 vdd gnd cell_1rw
Xbit_r12_c4 bl_0_4 br_0_4 wl_0_12 vdd gnd cell_1rw
Xbit_r13_c4 bl_0_4 br_0_4 wl_0_13 vdd gnd cell_1rw
Xbit_r14_c4 bl_0_4 br_0_4 wl_0_14 vdd gnd cell_1rw
Xbit_r15_c4 bl_0_4 br_0_4 wl_0_15 vdd gnd cell_1rw
Xbit_r16_c4 bl_0_4 br_0_4 wl_0_16 vdd gnd cell_1rw
Xbit_r17_c4 bl_0_4 br_0_4 wl_0_17 vdd gnd cell_1rw
Xbit_r18_c4 bl_0_4 br_0_4 wl_0_18 vdd gnd cell_1rw
Xbit_r19_c4 bl_0_4 br_0_4 wl_0_19 vdd gnd cell_1rw
Xbit_r20_c4 bl_0_4 br_0_4 wl_0_20 vdd gnd cell_1rw
Xbit_r21_c4 bl_0_4 br_0_4 wl_0_21 vdd gnd cell_1rw
Xbit_r22_c4 bl_0_4 br_0_4 wl_0_22 vdd gnd cell_1rw
Xbit_r23_c4 bl_0_4 br_0_4 wl_0_23 vdd gnd cell_1rw
Xbit_r24_c4 bl_0_4 br_0_4 wl_0_24 vdd gnd cell_1rw
Xbit_r25_c4 bl_0_4 br_0_4 wl_0_25 vdd gnd cell_1rw
Xbit_r26_c4 bl_0_4 br_0_4 wl_0_26 vdd gnd cell_1rw
Xbit_r27_c4 bl_0_4 br_0_4 wl_0_27 vdd gnd cell_1rw
Xbit_r28_c4 bl_0_4 br_0_4 wl_0_28 vdd gnd cell_1rw
Xbit_r29_c4 bl_0_4 br_0_4 wl_0_29 vdd gnd cell_1rw
Xbit_r30_c4 bl_0_4 br_0_4 wl_0_30 vdd gnd cell_1rw
Xbit_r31_c4 bl_0_4 br_0_4 wl_0_31 vdd gnd cell_1rw
Xbit_r0_c5 bl_0_5 br_0_5 wl_0_0 vdd gnd cell_1rw
Xbit_r1_c5 bl_0_5 br_0_5 wl_0_1 vdd gnd cell_1rw
Xbit_r2_c5 bl_0_5 br_0_5 wl_0_2 vdd gnd cell_1rw
Xbit_r3_c5 bl_0_5 br_0_5 wl_0_3 vdd gnd cell_1rw
Xbit_r4_c5 bl_0_5 br_0_5 wl_0_4 vdd gnd cell_1rw
Xbit_r5_c5 bl_0_5 br_0_5 wl_0_5 vdd gnd cell_1rw
Xbit_r6_c5 bl_0_5 br_0_5 wl_0_6 vdd gnd cell_1rw
Xbit_r7_c5 bl_0_5 br_0_5 wl_0_7 vdd gnd cell_1rw
Xbit_r8_c5 bl_0_5 br_0_5 wl_0_8 vdd gnd cell_1rw
Xbit_r9_c5 bl_0_5 br_0_5 wl_0_9 vdd gnd cell_1rw
Xbit_r10_c5 bl_0_5 br_0_5 wl_0_10 vdd gnd cell_1rw
Xbit_r11_c5 bl_0_5 br_0_5 wl_0_11 vdd gnd cell_1rw
Xbit_r12_c5 bl_0_5 br_0_5 wl_0_12 vdd gnd cell_1rw
Xbit_r13_c5 bl_0_5 br_0_5 wl_0_13 vdd gnd cell_1rw
Xbit_r14_c5 bl_0_5 br_0_5 wl_0_14 vdd gnd cell_1rw
Xbit_r15_c5 bl_0_5 br_0_5 wl_0_15 vdd gnd cell_1rw
Xbit_r16_c5 bl_0_5 br_0_5 wl_0_16 vdd gnd cell_1rw
Xbit_r17_c5 bl_0_5 br_0_5 wl_0_17 vdd gnd cell_1rw
Xbit_r18_c5 bl_0_5 br_0_5 wl_0_18 vdd gnd cell_1rw
Xbit_r19_c5 bl_0_5 br_0_5 wl_0_19 vdd gnd cell_1rw
Xbit_r20_c5 bl_0_5 br_0_5 wl_0_20 vdd gnd cell_1rw
Xbit_r21_c5 bl_0_5 br_0_5 wl_0_21 vdd gnd cell_1rw
Xbit_r22_c5 bl_0_5 br_0_5 wl_0_22 vdd gnd cell_1rw
Xbit_r23_c5 bl_0_5 br_0_5 wl_0_23 vdd gnd cell_1rw
Xbit_r24_c5 bl_0_5 br_0_5 wl_0_24 vdd gnd cell_1rw
Xbit_r25_c5 bl_0_5 br_0_5 wl_0_25 vdd gnd cell_1rw
Xbit_r26_c5 bl_0_5 br_0_5 wl_0_26 vdd gnd cell_1rw
Xbit_r27_c5 bl_0_5 br_0_5 wl_0_27 vdd gnd cell_1rw
Xbit_r28_c5 bl_0_5 br_0_5 wl_0_28 vdd gnd cell_1rw
Xbit_r29_c5 bl_0_5 br_0_5 wl_0_29 vdd gnd cell_1rw
Xbit_r30_c5 bl_0_5 br_0_5 wl_0_30 vdd gnd cell_1rw
Xbit_r31_c5 bl_0_5 br_0_5 wl_0_31 vdd gnd cell_1rw
Xbit_r0_c6 bl_0_6 br_0_6 wl_0_0 vdd gnd cell_1rw
Xbit_r1_c6 bl_0_6 br_0_6 wl_0_1 vdd gnd cell_1rw
Xbit_r2_c6 bl_0_6 br_0_6 wl_0_2 vdd gnd cell_1rw
Xbit_r3_c6 bl_0_6 br_0_6 wl_0_3 vdd gnd cell_1rw
Xbit_r4_c6 bl_0_6 br_0_6 wl_0_4 vdd gnd cell_1rw
Xbit_r5_c6 bl_0_6 br_0_6 wl_0_5 vdd gnd cell_1rw
Xbit_r6_c6 bl_0_6 br_0_6 wl_0_6 vdd gnd cell_1rw
Xbit_r7_c6 bl_0_6 br_0_6 wl_0_7 vdd gnd cell_1rw
Xbit_r8_c6 bl_0_6 br_0_6 wl_0_8 vdd gnd cell_1rw
Xbit_r9_c6 bl_0_6 br_0_6 wl_0_9 vdd gnd cell_1rw
Xbit_r10_c6 bl_0_6 br_0_6 wl_0_10 vdd gnd cell_1rw
Xbit_r11_c6 bl_0_6 br_0_6 wl_0_11 vdd gnd cell_1rw
Xbit_r12_c6 bl_0_6 br_0_6 wl_0_12 vdd gnd cell_1rw
Xbit_r13_c6 bl_0_6 br_0_6 wl_0_13 vdd gnd cell_1rw
Xbit_r14_c6 bl_0_6 br_0_6 wl_0_14 vdd gnd cell_1rw
Xbit_r15_c6 bl_0_6 br_0_6 wl_0_15 vdd gnd cell_1rw
Xbit_r16_c6 bl_0_6 br_0_6 wl_0_16 vdd gnd cell_1rw
Xbit_r17_c6 bl_0_6 br_0_6 wl_0_17 vdd gnd cell_1rw
Xbit_r18_c6 bl_0_6 br_0_6 wl_0_18 vdd gnd cell_1rw
Xbit_r19_c6 bl_0_6 br_0_6 wl_0_19 vdd gnd cell_1rw
Xbit_r20_c6 bl_0_6 br_0_6 wl_0_20 vdd gnd cell_1rw
Xbit_r21_c6 bl_0_6 br_0_6 wl_0_21 vdd gnd cell_1rw
Xbit_r22_c6 bl_0_6 br_0_6 wl_0_22 vdd gnd cell_1rw
Xbit_r23_c6 bl_0_6 br_0_6 wl_0_23 vdd gnd cell_1rw
Xbit_r24_c6 bl_0_6 br_0_6 wl_0_24 vdd gnd cell_1rw
Xbit_r25_c6 bl_0_6 br_0_6 wl_0_25 vdd gnd cell_1rw
Xbit_r26_c6 bl_0_6 br_0_6 wl_0_26 vdd gnd cell_1rw
Xbit_r27_c6 bl_0_6 br_0_6 wl_0_27 vdd gnd cell_1rw
Xbit_r28_c6 bl_0_6 br_0_6 wl_0_28 vdd gnd cell_1rw
Xbit_r29_c6 bl_0_6 br_0_6 wl_0_29 vdd gnd cell_1rw
Xbit_r30_c6 bl_0_6 br_0_6 wl_0_30 vdd gnd cell_1rw
Xbit_r31_c6 bl_0_6 br_0_6 wl_0_31 vdd gnd cell_1rw
Xbit_r0_c7 bl_0_7 br_0_7 wl_0_0 vdd gnd cell_1rw
Xbit_r1_c7 bl_0_7 br_0_7 wl_0_1 vdd gnd cell_1rw
Xbit_r2_c7 bl_0_7 br_0_7 wl_0_2 vdd gnd cell_1rw
Xbit_r3_c7 bl_0_7 br_0_7 wl_0_3 vdd gnd cell_1rw
Xbit_r4_c7 bl_0_7 br_0_7 wl_0_4 vdd gnd cell_1rw
Xbit_r5_c7 bl_0_7 br_0_7 wl_0_5 vdd gnd cell_1rw
Xbit_r6_c7 bl_0_7 br_0_7 wl_0_6 vdd gnd cell_1rw
Xbit_r7_c7 bl_0_7 br_0_7 wl_0_7 vdd gnd cell_1rw
Xbit_r8_c7 bl_0_7 br_0_7 wl_0_8 vdd gnd cell_1rw
Xbit_r9_c7 bl_0_7 br_0_7 wl_0_9 vdd gnd cell_1rw
Xbit_r10_c7 bl_0_7 br_0_7 wl_0_10 vdd gnd cell_1rw
Xbit_r11_c7 bl_0_7 br_0_7 wl_0_11 vdd gnd cell_1rw
Xbit_r12_c7 bl_0_7 br_0_7 wl_0_12 vdd gnd cell_1rw
Xbit_r13_c7 bl_0_7 br_0_7 wl_0_13 vdd gnd cell_1rw
Xbit_r14_c7 bl_0_7 br_0_7 wl_0_14 vdd gnd cell_1rw
Xbit_r15_c7 bl_0_7 br_0_7 wl_0_15 vdd gnd cell_1rw
Xbit_r16_c7 bl_0_7 br_0_7 wl_0_16 vdd gnd cell_1rw
Xbit_r17_c7 bl_0_7 br_0_7 wl_0_17 vdd gnd cell_1rw
Xbit_r18_c7 bl_0_7 br_0_7 wl_0_18 vdd gnd cell_1rw
Xbit_r19_c7 bl_0_7 br_0_7 wl_0_19 vdd gnd cell_1rw
Xbit_r20_c7 bl_0_7 br_0_7 wl_0_20 vdd gnd cell_1rw
Xbit_r21_c7 bl_0_7 br_0_7 wl_0_21 vdd gnd cell_1rw
Xbit_r22_c7 bl_0_7 br_0_7 wl_0_22 vdd gnd cell_1rw
Xbit_r23_c7 bl_0_7 br_0_7 wl_0_23 vdd gnd cell_1rw
Xbit_r24_c7 bl_0_7 br_0_7 wl_0_24 vdd gnd cell_1rw
Xbit_r25_c7 bl_0_7 br_0_7 wl_0_25 vdd gnd cell_1rw
Xbit_r26_c7 bl_0_7 br_0_7 wl_0_26 vdd gnd cell_1rw
Xbit_r27_c7 bl_0_7 br_0_7 wl_0_27 vdd gnd cell_1rw
Xbit_r28_c7 bl_0_7 br_0_7 wl_0_28 vdd gnd cell_1rw
Xbit_r29_c7 bl_0_7 br_0_7 wl_0_29 vdd gnd cell_1rw
Xbit_r30_c7 bl_0_7 br_0_7 wl_0_30 vdd gnd cell_1rw
Xbit_r31_c7 bl_0_7 br_0_7 wl_0_31 vdd gnd cell_1rw
Xbit_r0_c8 bl_0_8 br_0_8 wl_0_0 vdd gnd cell_1rw
Xbit_r1_c8 bl_0_8 br_0_8 wl_0_1 vdd gnd cell_1rw
Xbit_r2_c8 bl_0_8 br_0_8 wl_0_2 vdd gnd cell_1rw
Xbit_r3_c8 bl_0_8 br_0_8 wl_0_3 vdd gnd cell_1rw
Xbit_r4_c8 bl_0_8 br_0_8 wl_0_4 vdd gnd cell_1rw
Xbit_r5_c8 bl_0_8 br_0_8 wl_0_5 vdd gnd cell_1rw
Xbit_r6_c8 bl_0_8 br_0_8 wl_0_6 vdd gnd cell_1rw
Xbit_r7_c8 bl_0_8 br_0_8 wl_0_7 vdd gnd cell_1rw
Xbit_r8_c8 bl_0_8 br_0_8 wl_0_8 vdd gnd cell_1rw
Xbit_r9_c8 bl_0_8 br_0_8 wl_0_9 vdd gnd cell_1rw
Xbit_r10_c8 bl_0_8 br_0_8 wl_0_10 vdd gnd cell_1rw
Xbit_r11_c8 bl_0_8 br_0_8 wl_0_11 vdd gnd cell_1rw
Xbit_r12_c8 bl_0_8 br_0_8 wl_0_12 vdd gnd cell_1rw
Xbit_r13_c8 bl_0_8 br_0_8 wl_0_13 vdd gnd cell_1rw
Xbit_r14_c8 bl_0_8 br_0_8 wl_0_14 vdd gnd cell_1rw
Xbit_r15_c8 bl_0_8 br_0_8 wl_0_15 vdd gnd cell_1rw
Xbit_r16_c8 bl_0_8 br_0_8 wl_0_16 vdd gnd cell_1rw
Xbit_r17_c8 bl_0_8 br_0_8 wl_0_17 vdd gnd cell_1rw
Xbit_r18_c8 bl_0_8 br_0_8 wl_0_18 vdd gnd cell_1rw
Xbit_r19_c8 bl_0_8 br_0_8 wl_0_19 vdd gnd cell_1rw
Xbit_r20_c8 bl_0_8 br_0_8 wl_0_20 vdd gnd cell_1rw
Xbit_r21_c8 bl_0_8 br_0_8 wl_0_21 vdd gnd cell_1rw
Xbit_r22_c8 bl_0_8 br_0_8 wl_0_22 vdd gnd cell_1rw
Xbit_r23_c8 bl_0_8 br_0_8 wl_0_23 vdd gnd cell_1rw
Xbit_r24_c8 bl_0_8 br_0_8 wl_0_24 vdd gnd cell_1rw
Xbit_r25_c8 bl_0_8 br_0_8 wl_0_25 vdd gnd cell_1rw
Xbit_r26_c8 bl_0_8 br_0_8 wl_0_26 vdd gnd cell_1rw
Xbit_r27_c8 bl_0_8 br_0_8 wl_0_27 vdd gnd cell_1rw
Xbit_r28_c8 bl_0_8 br_0_8 wl_0_28 vdd gnd cell_1rw
Xbit_r29_c8 bl_0_8 br_0_8 wl_0_29 vdd gnd cell_1rw
Xbit_r30_c8 bl_0_8 br_0_8 wl_0_30 vdd gnd cell_1rw
Xbit_r31_c8 bl_0_8 br_0_8 wl_0_31 vdd gnd cell_1rw
Xbit_r0_c9 bl_0_9 br_0_9 wl_0_0 vdd gnd cell_1rw
Xbit_r1_c9 bl_0_9 br_0_9 wl_0_1 vdd gnd cell_1rw
Xbit_r2_c9 bl_0_9 br_0_9 wl_0_2 vdd gnd cell_1rw
Xbit_r3_c9 bl_0_9 br_0_9 wl_0_3 vdd gnd cell_1rw
Xbit_r4_c9 bl_0_9 br_0_9 wl_0_4 vdd gnd cell_1rw
Xbit_r5_c9 bl_0_9 br_0_9 wl_0_5 vdd gnd cell_1rw
Xbit_r6_c9 bl_0_9 br_0_9 wl_0_6 vdd gnd cell_1rw
Xbit_r7_c9 bl_0_9 br_0_9 wl_0_7 vdd gnd cell_1rw
Xbit_r8_c9 bl_0_9 br_0_9 wl_0_8 vdd gnd cell_1rw
Xbit_r9_c9 bl_0_9 br_0_9 wl_0_9 vdd gnd cell_1rw
Xbit_r10_c9 bl_0_9 br_0_9 wl_0_10 vdd gnd cell_1rw
Xbit_r11_c9 bl_0_9 br_0_9 wl_0_11 vdd gnd cell_1rw
Xbit_r12_c9 bl_0_9 br_0_9 wl_0_12 vdd gnd cell_1rw
Xbit_r13_c9 bl_0_9 br_0_9 wl_0_13 vdd gnd cell_1rw
Xbit_r14_c9 bl_0_9 br_0_9 wl_0_14 vdd gnd cell_1rw
Xbit_r15_c9 bl_0_9 br_0_9 wl_0_15 vdd gnd cell_1rw
Xbit_r16_c9 bl_0_9 br_0_9 wl_0_16 vdd gnd cell_1rw
Xbit_r17_c9 bl_0_9 br_0_9 wl_0_17 vdd gnd cell_1rw
Xbit_r18_c9 bl_0_9 br_0_9 wl_0_18 vdd gnd cell_1rw
Xbit_r19_c9 bl_0_9 br_0_9 wl_0_19 vdd gnd cell_1rw
Xbit_r20_c9 bl_0_9 br_0_9 wl_0_20 vdd gnd cell_1rw
Xbit_r21_c9 bl_0_9 br_0_9 wl_0_21 vdd gnd cell_1rw
Xbit_r22_c9 bl_0_9 br_0_9 wl_0_22 vdd gnd cell_1rw
Xbit_r23_c9 bl_0_9 br_0_9 wl_0_23 vdd gnd cell_1rw
Xbit_r24_c9 bl_0_9 br_0_9 wl_0_24 vdd gnd cell_1rw
Xbit_r25_c9 bl_0_9 br_0_9 wl_0_25 vdd gnd cell_1rw
Xbit_r26_c9 bl_0_9 br_0_9 wl_0_26 vdd gnd cell_1rw
Xbit_r27_c9 bl_0_9 br_0_9 wl_0_27 vdd gnd cell_1rw
Xbit_r28_c9 bl_0_9 br_0_9 wl_0_28 vdd gnd cell_1rw
Xbit_r29_c9 bl_0_9 br_0_9 wl_0_29 vdd gnd cell_1rw
Xbit_r30_c9 bl_0_9 br_0_9 wl_0_30 vdd gnd cell_1rw
Xbit_r31_c9 bl_0_9 br_0_9 wl_0_31 vdd gnd cell_1rw
Xbit_r0_c10 bl_0_10 br_0_10 wl_0_0 vdd gnd cell_1rw
Xbit_r1_c10 bl_0_10 br_0_10 wl_0_1 vdd gnd cell_1rw
Xbit_r2_c10 bl_0_10 br_0_10 wl_0_2 vdd gnd cell_1rw
Xbit_r3_c10 bl_0_10 br_0_10 wl_0_3 vdd gnd cell_1rw
Xbit_r4_c10 bl_0_10 br_0_10 wl_0_4 vdd gnd cell_1rw
Xbit_r5_c10 bl_0_10 br_0_10 wl_0_5 vdd gnd cell_1rw
Xbit_r6_c10 bl_0_10 br_0_10 wl_0_6 vdd gnd cell_1rw
Xbit_r7_c10 bl_0_10 br_0_10 wl_0_7 vdd gnd cell_1rw
Xbit_r8_c10 bl_0_10 br_0_10 wl_0_8 vdd gnd cell_1rw
Xbit_r9_c10 bl_0_10 br_0_10 wl_0_9 vdd gnd cell_1rw
Xbit_r10_c10 bl_0_10 br_0_10 wl_0_10 vdd gnd cell_1rw
Xbit_r11_c10 bl_0_10 br_0_10 wl_0_11 vdd gnd cell_1rw
Xbit_r12_c10 bl_0_10 br_0_10 wl_0_12 vdd gnd cell_1rw
Xbit_r13_c10 bl_0_10 br_0_10 wl_0_13 vdd gnd cell_1rw
Xbit_r14_c10 bl_0_10 br_0_10 wl_0_14 vdd gnd cell_1rw
Xbit_r15_c10 bl_0_10 br_0_10 wl_0_15 vdd gnd cell_1rw
Xbit_r16_c10 bl_0_10 br_0_10 wl_0_16 vdd gnd cell_1rw
Xbit_r17_c10 bl_0_10 br_0_10 wl_0_17 vdd gnd cell_1rw
Xbit_r18_c10 bl_0_10 br_0_10 wl_0_18 vdd gnd cell_1rw
Xbit_r19_c10 bl_0_10 br_0_10 wl_0_19 vdd gnd cell_1rw
Xbit_r20_c10 bl_0_10 br_0_10 wl_0_20 vdd gnd cell_1rw
Xbit_r21_c10 bl_0_10 br_0_10 wl_0_21 vdd gnd cell_1rw
Xbit_r22_c10 bl_0_10 br_0_10 wl_0_22 vdd gnd cell_1rw
Xbit_r23_c10 bl_0_10 br_0_10 wl_0_23 vdd gnd cell_1rw
Xbit_r24_c10 bl_0_10 br_0_10 wl_0_24 vdd gnd cell_1rw
Xbit_r25_c10 bl_0_10 br_0_10 wl_0_25 vdd gnd cell_1rw
Xbit_r26_c10 bl_0_10 br_0_10 wl_0_26 vdd gnd cell_1rw
Xbit_r27_c10 bl_0_10 br_0_10 wl_0_27 vdd gnd cell_1rw
Xbit_r28_c10 bl_0_10 br_0_10 wl_0_28 vdd gnd cell_1rw
Xbit_r29_c10 bl_0_10 br_0_10 wl_0_29 vdd gnd cell_1rw
Xbit_r30_c10 bl_0_10 br_0_10 wl_0_30 vdd gnd cell_1rw
Xbit_r31_c10 bl_0_10 br_0_10 wl_0_31 vdd gnd cell_1rw
Xbit_r0_c11 bl_0_11 br_0_11 wl_0_0 vdd gnd cell_1rw
Xbit_r1_c11 bl_0_11 br_0_11 wl_0_1 vdd gnd cell_1rw
Xbit_r2_c11 bl_0_11 br_0_11 wl_0_2 vdd gnd cell_1rw
Xbit_r3_c11 bl_0_11 br_0_11 wl_0_3 vdd gnd cell_1rw
Xbit_r4_c11 bl_0_11 br_0_11 wl_0_4 vdd gnd cell_1rw
Xbit_r5_c11 bl_0_11 br_0_11 wl_0_5 vdd gnd cell_1rw
Xbit_r6_c11 bl_0_11 br_0_11 wl_0_6 vdd gnd cell_1rw
Xbit_r7_c11 bl_0_11 br_0_11 wl_0_7 vdd gnd cell_1rw
Xbit_r8_c11 bl_0_11 br_0_11 wl_0_8 vdd gnd cell_1rw
Xbit_r9_c11 bl_0_11 br_0_11 wl_0_9 vdd gnd cell_1rw
Xbit_r10_c11 bl_0_11 br_0_11 wl_0_10 vdd gnd cell_1rw
Xbit_r11_c11 bl_0_11 br_0_11 wl_0_11 vdd gnd cell_1rw
Xbit_r12_c11 bl_0_11 br_0_11 wl_0_12 vdd gnd cell_1rw
Xbit_r13_c11 bl_0_11 br_0_11 wl_0_13 vdd gnd cell_1rw
Xbit_r14_c11 bl_0_11 br_0_11 wl_0_14 vdd gnd cell_1rw
Xbit_r15_c11 bl_0_11 br_0_11 wl_0_15 vdd gnd cell_1rw
Xbit_r16_c11 bl_0_11 br_0_11 wl_0_16 vdd gnd cell_1rw
Xbit_r17_c11 bl_0_11 br_0_11 wl_0_17 vdd gnd cell_1rw
Xbit_r18_c11 bl_0_11 br_0_11 wl_0_18 vdd gnd cell_1rw
Xbit_r19_c11 bl_0_11 br_0_11 wl_0_19 vdd gnd cell_1rw
Xbit_r20_c11 bl_0_11 br_0_11 wl_0_20 vdd gnd cell_1rw
Xbit_r21_c11 bl_0_11 br_0_11 wl_0_21 vdd gnd cell_1rw
Xbit_r22_c11 bl_0_11 br_0_11 wl_0_22 vdd gnd cell_1rw
Xbit_r23_c11 bl_0_11 br_0_11 wl_0_23 vdd gnd cell_1rw
Xbit_r24_c11 bl_0_11 br_0_11 wl_0_24 vdd gnd cell_1rw
Xbit_r25_c11 bl_0_11 br_0_11 wl_0_25 vdd gnd cell_1rw
Xbit_r26_c11 bl_0_11 br_0_11 wl_0_26 vdd gnd cell_1rw
Xbit_r27_c11 bl_0_11 br_0_11 wl_0_27 vdd gnd cell_1rw
Xbit_r28_c11 bl_0_11 br_0_11 wl_0_28 vdd gnd cell_1rw
Xbit_r29_c11 bl_0_11 br_0_11 wl_0_29 vdd gnd cell_1rw
Xbit_r30_c11 bl_0_11 br_0_11 wl_0_30 vdd gnd cell_1rw
Xbit_r31_c11 bl_0_11 br_0_11 wl_0_31 vdd gnd cell_1rw
Xbit_r0_c12 bl_0_12 br_0_12 wl_0_0 vdd gnd cell_1rw
Xbit_r1_c12 bl_0_12 br_0_12 wl_0_1 vdd gnd cell_1rw
Xbit_r2_c12 bl_0_12 br_0_12 wl_0_2 vdd gnd cell_1rw
Xbit_r3_c12 bl_0_12 br_0_12 wl_0_3 vdd gnd cell_1rw
Xbit_r4_c12 bl_0_12 br_0_12 wl_0_4 vdd gnd cell_1rw
Xbit_r5_c12 bl_0_12 br_0_12 wl_0_5 vdd gnd cell_1rw
Xbit_r6_c12 bl_0_12 br_0_12 wl_0_6 vdd gnd cell_1rw
Xbit_r7_c12 bl_0_12 br_0_12 wl_0_7 vdd gnd cell_1rw
Xbit_r8_c12 bl_0_12 br_0_12 wl_0_8 vdd gnd cell_1rw
Xbit_r9_c12 bl_0_12 br_0_12 wl_0_9 vdd gnd cell_1rw
Xbit_r10_c12 bl_0_12 br_0_12 wl_0_10 vdd gnd cell_1rw
Xbit_r11_c12 bl_0_12 br_0_12 wl_0_11 vdd gnd cell_1rw
Xbit_r12_c12 bl_0_12 br_0_12 wl_0_12 vdd gnd cell_1rw
Xbit_r13_c12 bl_0_12 br_0_12 wl_0_13 vdd gnd cell_1rw
Xbit_r14_c12 bl_0_12 br_0_12 wl_0_14 vdd gnd cell_1rw
Xbit_r15_c12 bl_0_12 br_0_12 wl_0_15 vdd gnd cell_1rw
Xbit_r16_c12 bl_0_12 br_0_12 wl_0_16 vdd gnd cell_1rw
Xbit_r17_c12 bl_0_12 br_0_12 wl_0_17 vdd gnd cell_1rw
Xbit_r18_c12 bl_0_12 br_0_12 wl_0_18 vdd gnd cell_1rw
Xbit_r19_c12 bl_0_12 br_0_12 wl_0_19 vdd gnd cell_1rw
Xbit_r20_c12 bl_0_12 br_0_12 wl_0_20 vdd gnd cell_1rw
Xbit_r21_c12 bl_0_12 br_0_12 wl_0_21 vdd gnd cell_1rw
Xbit_r22_c12 bl_0_12 br_0_12 wl_0_22 vdd gnd cell_1rw
Xbit_r23_c12 bl_0_12 br_0_12 wl_0_23 vdd gnd cell_1rw
Xbit_r24_c12 bl_0_12 br_0_12 wl_0_24 vdd gnd cell_1rw
Xbit_r25_c12 bl_0_12 br_0_12 wl_0_25 vdd gnd cell_1rw
Xbit_r26_c12 bl_0_12 br_0_12 wl_0_26 vdd gnd cell_1rw
Xbit_r27_c12 bl_0_12 br_0_12 wl_0_27 vdd gnd cell_1rw
Xbit_r28_c12 bl_0_12 br_0_12 wl_0_28 vdd gnd cell_1rw
Xbit_r29_c12 bl_0_12 br_0_12 wl_0_29 vdd gnd cell_1rw
Xbit_r30_c12 bl_0_12 br_0_12 wl_0_30 vdd gnd cell_1rw
Xbit_r31_c12 bl_0_12 br_0_12 wl_0_31 vdd gnd cell_1rw
Xbit_r0_c13 bl_0_13 br_0_13 wl_0_0 vdd gnd cell_1rw
Xbit_r1_c13 bl_0_13 br_0_13 wl_0_1 vdd gnd cell_1rw
Xbit_r2_c13 bl_0_13 br_0_13 wl_0_2 vdd gnd cell_1rw
Xbit_r3_c13 bl_0_13 br_0_13 wl_0_3 vdd gnd cell_1rw
Xbit_r4_c13 bl_0_13 br_0_13 wl_0_4 vdd gnd cell_1rw
Xbit_r5_c13 bl_0_13 br_0_13 wl_0_5 vdd gnd cell_1rw
Xbit_r6_c13 bl_0_13 br_0_13 wl_0_6 vdd gnd cell_1rw
Xbit_r7_c13 bl_0_13 br_0_13 wl_0_7 vdd gnd cell_1rw
Xbit_r8_c13 bl_0_13 br_0_13 wl_0_8 vdd gnd cell_1rw
Xbit_r9_c13 bl_0_13 br_0_13 wl_0_9 vdd gnd cell_1rw
Xbit_r10_c13 bl_0_13 br_0_13 wl_0_10 vdd gnd cell_1rw
Xbit_r11_c13 bl_0_13 br_0_13 wl_0_11 vdd gnd cell_1rw
Xbit_r12_c13 bl_0_13 br_0_13 wl_0_12 vdd gnd cell_1rw
Xbit_r13_c13 bl_0_13 br_0_13 wl_0_13 vdd gnd cell_1rw
Xbit_r14_c13 bl_0_13 br_0_13 wl_0_14 vdd gnd cell_1rw
Xbit_r15_c13 bl_0_13 br_0_13 wl_0_15 vdd gnd cell_1rw
Xbit_r16_c13 bl_0_13 br_0_13 wl_0_16 vdd gnd cell_1rw
Xbit_r17_c13 bl_0_13 br_0_13 wl_0_17 vdd gnd cell_1rw
Xbit_r18_c13 bl_0_13 br_0_13 wl_0_18 vdd gnd cell_1rw
Xbit_r19_c13 bl_0_13 br_0_13 wl_0_19 vdd gnd cell_1rw
Xbit_r20_c13 bl_0_13 br_0_13 wl_0_20 vdd gnd cell_1rw
Xbit_r21_c13 bl_0_13 br_0_13 wl_0_21 vdd gnd cell_1rw
Xbit_r22_c13 bl_0_13 br_0_13 wl_0_22 vdd gnd cell_1rw
Xbit_r23_c13 bl_0_13 br_0_13 wl_0_23 vdd gnd cell_1rw
Xbit_r24_c13 bl_0_13 br_0_13 wl_0_24 vdd gnd cell_1rw
Xbit_r25_c13 bl_0_13 br_0_13 wl_0_25 vdd gnd cell_1rw
Xbit_r26_c13 bl_0_13 br_0_13 wl_0_26 vdd gnd cell_1rw
Xbit_r27_c13 bl_0_13 br_0_13 wl_0_27 vdd gnd cell_1rw
Xbit_r28_c13 bl_0_13 br_0_13 wl_0_28 vdd gnd cell_1rw
Xbit_r29_c13 bl_0_13 br_0_13 wl_0_29 vdd gnd cell_1rw
Xbit_r30_c13 bl_0_13 br_0_13 wl_0_30 vdd gnd cell_1rw
Xbit_r31_c13 bl_0_13 br_0_13 wl_0_31 vdd gnd cell_1rw
Xbit_r0_c14 bl_0_14 br_0_14 wl_0_0 vdd gnd cell_1rw
Xbit_r1_c14 bl_0_14 br_0_14 wl_0_1 vdd gnd cell_1rw
Xbit_r2_c14 bl_0_14 br_0_14 wl_0_2 vdd gnd cell_1rw
Xbit_r3_c14 bl_0_14 br_0_14 wl_0_3 vdd gnd cell_1rw
Xbit_r4_c14 bl_0_14 br_0_14 wl_0_4 vdd gnd cell_1rw
Xbit_r5_c14 bl_0_14 br_0_14 wl_0_5 vdd gnd cell_1rw
Xbit_r6_c14 bl_0_14 br_0_14 wl_0_6 vdd gnd cell_1rw
Xbit_r7_c14 bl_0_14 br_0_14 wl_0_7 vdd gnd cell_1rw
Xbit_r8_c14 bl_0_14 br_0_14 wl_0_8 vdd gnd cell_1rw
Xbit_r9_c14 bl_0_14 br_0_14 wl_0_9 vdd gnd cell_1rw
Xbit_r10_c14 bl_0_14 br_0_14 wl_0_10 vdd gnd cell_1rw
Xbit_r11_c14 bl_0_14 br_0_14 wl_0_11 vdd gnd cell_1rw
Xbit_r12_c14 bl_0_14 br_0_14 wl_0_12 vdd gnd cell_1rw
Xbit_r13_c14 bl_0_14 br_0_14 wl_0_13 vdd gnd cell_1rw
Xbit_r14_c14 bl_0_14 br_0_14 wl_0_14 vdd gnd cell_1rw
Xbit_r15_c14 bl_0_14 br_0_14 wl_0_15 vdd gnd cell_1rw
Xbit_r16_c14 bl_0_14 br_0_14 wl_0_16 vdd gnd cell_1rw
Xbit_r17_c14 bl_0_14 br_0_14 wl_0_17 vdd gnd cell_1rw