**************************************************
* OpenRAM generated memory.
* Words: 2048
* Data bits: 32
* Banks: 1
* Column mux: 4:1
**************************************************

* ptx M{0} {1} nmos_vtg m=1 w=0.18u l=0.05u pd=0.46u ps=0.46u as=0.0225p ad=0.0225p

* ptx M{0} {1} pmos_vtg m=1 w=0.27u l=0.05u pd=0.64u ps=0.64u as=0.03375p ad=0.03375p

.SUBCKT pnand2_1 A B Z vdd gnd
Mpnand2_pmos1 vdd A Z vdd pmos_vtg m=1 w=0.27u l=0.05u pd=0.64u ps=0.64u as=0.03375p ad=0.03375p
Mpnand2_pmos2 Z B vdd vdd pmos_vtg m=1 w=0.27u l=0.05u pd=0.64u ps=0.64u as=0.03375p ad=0.03375p
Mpnand2_nmos1 Z B net1 gnd nmos_vtg m=1 w=0.18u l=0.05u pd=0.46u ps=0.46u as=0.0225p ad=0.0225p
Mpnand2_nmos2 net1 A gnd gnd nmos_vtg m=1 w=0.18u l=0.05u pd=0.46u ps=0.46u as=0.0225p ad=0.0225p
.ENDS pnand2_1

.SUBCKT pnand3_1 A B C Z vdd gnd
Mpnand3_pmos1 vdd A Z vdd pmos_vtg m=1 w=0.27u l=0.05u pd=0.64u ps=0.64u as=0.03375p ad=0.03375p
Mpnand3_pmos2 Z B vdd vdd pmos_vtg m=1 w=0.27u l=0.05u pd=0.64u ps=0.64u as=0.03375p ad=0.03375p
Mpnand3_pmos3 Z C vdd vdd pmos_vtg m=1 w=0.27u l=0.05u pd=0.64u ps=0.64u as=0.03375p ad=0.03375p
Mpnand3_nmos1 Z C net1 gnd nmos_vtg m=1 w=0.18u l=0.05u pd=0.46u ps=0.46u as=0.0225p ad=0.0225p
Mpnand3_nmos2 net1 B net2 gnd nmos_vtg m=1 w=0.18u l=0.05u pd=0.46u ps=0.46u as=0.0225p ad=0.0225p
Mpnand3_nmos3 net2 A gnd gnd nmos_vtg m=1 w=0.18u l=0.05u pd=0.46u ps=0.46u as=0.0225p ad=0.0225p
.ENDS pnand3_1

* ptx M{0} {1} nmos_vtg m=1 w=0.09u l=0.05u pd=0.28u ps=0.28u as=0.01125p ad=0.01125p

* ptx M{0} {1} pmos_vtg m=1 w=0.405u l=0.05u pd=0.91u ps=0.91u as=0.050625p ad=0.050625p

.SUBCKT pnor2_1 A B Z vdd gnd
Mpnor2_pmos1 vdd A net1 vdd pmos_vtg m=1 w=0.405u l=0.05u pd=0.91u ps=0.91u as=0.050625p ad=0.050625p
Mpnor2_pmos2 net1 B Z vdd pmos_vtg m=1 w=0.405u l=0.05u pd=0.91u ps=0.91u as=0.050625p ad=0.050625p
Mpnor2_nmos1 Z A gnd gnd nmos_vtg m=1 w=0.09u l=0.05u pd=0.28u ps=0.28u as=0.01125p ad=0.01125p
Mpnor2_nmos2 Z B gnd gnd nmos_vtg m=1 w=0.09u l=0.05u pd=0.28u ps=0.28u as=0.01125p ad=0.01125p
.ENDS pnor2_1

.SUBCKT pinv_1 A Z vdd gnd
Mpinv_pmos Z A vdd vdd pmos_vtg m=1 w=0.27u l=0.05u pd=0.64u ps=0.64u as=0.03375p ad=0.03375p
Mpinv_nmos Z A gnd gnd nmos_vtg m=1 w=0.09u l=0.05u pd=0.28u ps=0.28u as=0.01125p ad=0.01125p
.ENDS pinv_1

* ptx M{0} {1} nmos_vtg m=2 w=0.09u l=0.05u pd=0.28u ps=0.28u as=0.01125p ad=0.01125p

* ptx M{0} {1} pmos_vtg m=2 w=0.27u l=0.05u pd=0.64u ps=0.64u as=0.03375p ad=0.03375p

.SUBCKT pinv_2 A Z vdd gnd
Mpinv_pmos Z A vdd vdd pmos_vtg m=2 w=0.27u l=0.05u pd=0.64u ps=0.64u as=0.03375p ad=0.03375p
Mpinv_nmos Z A gnd gnd nmos_vtg m=2 w=0.09u l=0.05u pd=0.28u ps=0.28u as=0.01125p ad=0.01125p
.ENDS pinv_2

* ptx M{0} {1} nmos_vtg m=3 w=0.12u l=0.05u pd=0.34u ps=0.34u as=0.015p ad=0.015p

* ptx M{0} {1} pmos_vtg m=3 w=0.36u l=0.05u pd=0.82u ps=0.82u as=0.045p ad=0.045p

.SUBCKT pinv_3 A Z vdd gnd
Mpinv_pmos Z A vdd vdd pmos_vtg m=3 w=0.36u l=0.05u pd=0.82u ps=0.82u as=0.045p ad=0.045p
Mpinv_nmos Z A gnd gnd nmos_vtg m=3 w=0.12u l=0.05u pd=0.34u ps=0.34u as=0.015p ad=0.015p
.ENDS pinv_3

* ptx M{0} {1} nmos_vtg m=6 w=0.12u l=0.05u pd=0.34u ps=0.34u as=0.015p ad=0.015p

* ptx M{0} {1} pmos_vtg m=6 w=0.36u l=0.05u pd=0.82u ps=0.82u as=0.045p ad=0.045p

.SUBCKT pinv_4 A Z vdd gnd
Mpinv_pmos Z A vdd vdd pmos_vtg m=6 w=0.36u l=0.05u pd=0.82u ps=0.82u as=0.045p ad=0.045p
Mpinv_nmos Z A gnd gnd nmos_vtg m=6 w=0.12u l=0.05u pd=0.34u ps=0.34u as=0.015p ad=0.015p
.ENDS pinv_4

* ptx M{0} {1} nmos_vtg m=12 w=0.12u l=0.05u pd=0.34u ps=0.34u as=0.015p ad=0.015p

* ptx M{0} {1} pmos_vtg m=12 w=0.36u l=0.05u pd=0.82u ps=0.82u as=0.045p ad=0.045p

.SUBCKT pinv_5 A Z vdd gnd
Mpinv_pmos Z A vdd vdd pmos_vtg m=12 w=0.36u l=0.05u pd=0.82u ps=0.82u as=0.045p ad=0.045p
Mpinv_nmos Z A gnd gnd nmos_vtg m=12 w=0.12u l=0.05u pd=0.34u ps=0.34u as=0.015p ad=0.015p
.ENDS pinv_5
*master-slave flip-flop with both output and inverted ouput

.SUBCKT ms_flop din dout dout_bar clk vdd gnd
xmaster din mout mout_bar clk clk_bar vdd gnd dlatch
xslave mout_bar dout_bar dout clk_bar clk_nn vdd gnd dlatch
.ENDS flop

.SUBCKT dlatch din dout dout_bar clk clk_bar vdd gnd
*clk inverter
mPff1 clk_bar clk vdd vdd PMOS_VTG W=180.0n L=50n m=1
mNff1 clk_bar clk gnd gnd NMOS_VTG W=90n L=50n m=1

*transmission gate 1
mtmP1 din clk int1 vdd PMOS_VTG W=180.0n L=50n m=1
mtmN1 din clk_bar int1 gnd NMOS_VTG W=90n L=50n m=1

*foward inverter
mPff3 dout_bar int1 vdd vdd PMOS_VTG W=180.0n L=50n m=1
mNff3 dout_bar int1 gnd gnd NMOS_VTG W=90n L=50n m=1

*backward inverter
mPff4 dout dout_bar vdd vdd PMOS_VTG W=180.0n L=50n m=1
mNf4 dout dout_bar gnd gnd NMOS_VTG W=90n L=50n m=1

*transmission gate 2
mtmP2 int1 clk_bar dout vdd PMOS_VTG W=180.0n L=50n m=1
mtmN2 int1 clk dout gnd NMOS_VTG W=90n L=50n m=1
.ENDS dlatch


.SUBCKT msf_control din[0] din[1] din[2] dout[0] dout_bar[0] dout[1] dout_bar[1] dout[2] dout_bar[2] clk vdd gnd
XXdff0 din[0] dout[0] dout_bar[0] clk vdd gnd ms_flop
XXdff1 din[1] dout[1] dout_bar[1] clk vdd gnd ms_flop
XXdff2 din[2] dout[2] dout_bar[2] clk vdd gnd ms_flop
.ENDS msf_control

.SUBCKT replica_cell_6t bl br wl vdd gnd
MM3 bl wl gnd gnd NMOS_VTG W=135.00n L=50n
MM2 br wl net4 gnd NMOS_VTG W=135.00n L=50n
MM1 gnd net4 gnd gnd NMOS_VTG W=205.00n L=50n
MM0 net4 gnd gnd gnd NMOS_VTG W=205.00n L=50n
MM5 gnd net4 vdd vdd PMOS_VTG W=90n L=50n
MM4 net4 gnd vdd vdd PMOS_VTG W=90n L=50n
.ENDS replica_cell_6t


.SUBCKT cell_6t bl br wl vdd gnd
MM3 bl wl net10 gnd NMOS_VTG W=135.00n L=50n
MM2 br wl net4 gnd NMOS_VTG W=135.00n L=50n
MM1 net10 net4 gnd gnd NMOS_VTG W=205.00n L=50n
MM0 net4 net10 gnd gnd NMOS_VTG W=205.00n L=50n
MM5 net10 net4 vdd vdd PMOS_VTG W=90n L=50n
MM4 net4 net10 vdd vdd PMOS_VTG W=90n L=50n
.ENDS cell_6t


.SUBCKT bitline_load bl[0] br[0] wl[0] wl[1] wl[2] wl[3] wl[4] wl[5] wl[6] wl[7] wl[8] wl[9] wl[10] wl[11] wl[12] wl[13] wl[14] wl[15] wl[16] wl[17] wl[18] wl[19] wl[20] wl[21] wl[22] wl[23] wl[24] wl[25] wl[26] wl[27] wl[28] wl[29] wl[30] wl[31] wl[32] wl[33] wl[34] wl[35] wl[36] wl[37] wl[38] wl[39] wl[40] wl[41] wl[42] wl[43] wl[44] wl[45] wl[46] wl[47] wl[48] wl[49] wl[50] wl[51] wl[52] wl[53] wl[54] wl[55] wl[56] wl[57] wl[58] wl[59] wl[60] wl[61] wl[62] wl[63] wl[64] wl[65] wl[66] wl[67] wl[68] wl[69] wl[70] wl[71] wl[72] wl[73] wl[74] wl[75] wl[76] wl[77] wl[78] wl[79] wl[80] wl[81] wl[82] wl[83] wl[84] wl[85] wl[86] wl[87] wl[88] wl[89] wl[90] wl[91] wl[92] wl[93] wl[94] wl[95] wl[96] wl[97] wl[98] wl[99] wl[100] wl[101] wl[102] vdd gnd
Xbit_r0_c0 bl[0] br[0] wl[0] vdd gnd cell_6t
Xbit_r1_c0 bl[0] br[0] wl[1] vdd gnd cell_6t
Xbit_r2_c0 bl[0] br[0] wl[2] vdd gnd cell_6t
Xbit_r3_c0 bl[0] br[0] wl[3] vdd gnd cell_6t
Xbit_r4_c0 bl[0] br[0] wl[4] vdd gnd cell_6t
Xbit_r5_c0 bl[0] br[0] wl[5] vdd gnd cell_6t
Xbit_r6_c0 bl[0] br[0] wl[6] vdd gnd cell_6t
Xbit_r7_c0 bl[0] br[0] wl[7] vdd gnd cell_6t
Xbit_r8_c0 bl[0] br[0] wl[8] vdd gnd cell_6t
Xbit_r9_c0 bl[0] br[0] wl[9] vdd gnd cell_6t
Xbit_r10_c0 bl[0] br[0] wl[10] vdd gnd cell_6t
Xbit_r11_c0 bl[0] br[0] wl[11] vdd gnd cell_6t
Xbit_r12_c0 bl[0] br[0] wl[12] vdd gnd cell_6t
Xbit_r13_c0 bl[0] br[0] wl[13] vdd gnd cell_6t
Xbit_r14_c0 bl[0] br[0] wl[14] vdd gnd cell_6t
Xbit_r15_c0 bl[0] br[0] wl[15] vdd gnd cell_6t
Xbit_r16_c0 bl[0] br[0] wl[16] vdd gnd cell_6t
Xbit_r17_c0 bl[0] br[0] wl[17] vdd gnd cell_6t
Xbit_r18_c0 bl[0] br[0] wl[18] vdd gnd cell_6t
Xbit_r19_c0 bl[0] br[0] wl[19] vdd gnd cell_6t
Xbit_r20_c0 bl[0] br[0] wl[20] vdd gnd cell_6t
Xbit_r21_c0 bl[0] br[0] wl[21] vdd gnd cell_6t
Xbit_r22_c0 bl[0] br[0] wl[22] vdd gnd cell_6t
Xbit_r23_c0 bl[0] br[0] wl[23] vdd gnd cell_6t
Xbit_r24_c0 bl[0] br[0] wl[24] vdd gnd cell_6t
Xbit_r25_c0 bl[0] br[0] wl[25] vdd gnd cell_6t
Xbit_r26_c0 bl[0] br[0] wl[26] vdd gnd cell_6t
Xbit_r27_c0 bl[0] br[0] wl[27] vdd gnd cell_6t
Xbit_r28_c0 bl[0] br[0] wl[28] vdd gnd cell_6t
Xbit_r29_c0 bl[0] br[0] wl[29] vdd gnd cell_6t
Xbit_r30_c0 bl[0] br[0] wl[30] vdd gnd cell_6t
Xbit_r31_c0 bl[0] br[0] wl[31] vdd gnd cell_6t
Xbit_r32_c0 bl[0] br[0] wl[32] vdd gnd cell_6t
Xbit_r33_c0 bl[0] br[0] wl[33] vdd gnd cell_6t
Xbit_r34_c0 bl[0] br[0] wl[34] vdd gnd cell_6t
Xbit_r35_c0 bl[0] br[0] wl[35] vdd gnd cell_6t
Xbit_r36_c0 bl[0] br[0] wl[36] vdd gnd cell_6t
Xbit_r37_c0 bl[0] br[0] wl[37] vdd gnd cell_6t
Xbit_r38_c0 bl[0] br[0] wl[38] vdd gnd cell_6t
Xbit_r39_c0 bl[0] br[0] wl[39] vdd gnd cell_6t
Xbit_r40_c0 bl[0] br[0] wl[40] vdd gnd cell_6t
Xbit_r41_c0 bl[0] br[0] wl[41] vdd gnd cell_6t
Xbit_r42_c0 bl[0] br[0] wl[42] vdd gnd cell_6t
Xbit_r43_c0 bl[0] br[0] wl[43] vdd gnd cell_6t
Xbit_r44_c0 bl[0] br[0] wl[44] vdd gnd cell_6t
Xbit_r45_c0 bl[0] br[0] wl[45] vdd gnd cell_6t
Xbit_r46_c0 bl[0] br[0] wl[46] vdd gnd cell_6t
Xbit_r47_c0 bl[0] br[0] wl[47] vdd gnd cell_6t
Xbit_r48_c0 bl[0] br[0] wl[48] vdd gnd cell_6t
Xbit_r49_c0 bl[0] br[0] wl[49] vdd gnd cell_6t
Xbit_r50_c0 bl[0] br[0] wl[50] vdd gnd cell_6t
Xbit_r51_c0 bl[0] br[0] wl[51] vdd gnd cell_6t
Xbit_r52_c0 bl[0] br[0] wl[52] vdd gnd cell_6t
Xbit_r53_c0 bl[0] br[0] wl[53] vdd gnd cell_6t
Xbit_r54_c0 bl[0] br[0] wl[54] vdd gnd cell_6t
Xbit_r55_c0 bl[0] br[0] wl[55] vdd gnd cell_6t
Xbit_r56_c0 bl[0] br[0] wl[56] vdd gnd cell_6t
Xbit_r57_c0 bl[0] br[0] wl[57] vdd gnd cell_6t
Xbit_r58_c0 bl[0] br[0] wl[58] vdd gnd cell_6t
Xbit_r59_c0 bl[0] br[0] wl[59] vdd gnd cell_6t
Xbit_r60_c0 bl[0] br[0] wl[60] vdd gnd cell_6t
Xbit_r61_c0 bl[0] br[0] wl[61] vdd gnd cell_6t
Xbit_r62_c0 bl[0] br[0] wl[62] vdd gnd cell_6t
Xbit_r63_c0 bl[0] br[0] wl[63] vdd gnd cell_6t
Xbit_r64_c0 bl[0] br[0] wl[64] vdd gnd cell_6t
Xbit_r65_c0 bl[0] br[0] wl[65] vdd gnd cell_6t
Xbit_r66_c0 bl[0] br[0] wl[66] vdd gnd cell_6t
Xbit_r67_c0 bl[0] br[0] wl[67] vdd gnd cell_6t
Xbit_r68_c0 bl[0] br[0] wl[68] vdd gnd cell_6t
Xbit_r69_c0 bl[0] br[0] wl[69] vdd gnd cell_6t
Xbit_r70_c0 bl[0] br[0] wl[70] vdd gnd cell_6t
Xbit_r71_c0 bl[0] br[0] wl[71] vdd gnd cell_6t
Xbit_r72_c0 bl[0] br[0] wl[72] vdd gnd cell_6t
Xbit_r73_c0 bl[0] br[0] wl[73] vdd gnd cell_6t
Xbit_r74_c0 bl[0] br[0] wl[74] vdd gnd cell_6t
Xbit_r75_c0 bl[0] br[0] wl[75] vdd gnd cell_6t
Xbit_r76_c0 bl[0] br[0] wl[76] vdd gnd cell_6t
Xbit_r77_c0 bl[0] br[0] wl[77] vdd gnd cell_6t
Xbit_r78_c0 bl[0] br[0] wl[78] vdd gnd cell_6t
Xbit_r79_c0 bl[0] br[0] wl[79] vdd gnd cell_6t
Xbit_r80_c0 bl[0] br[0] wl[80] vdd gnd cell_6t
Xbit_r81_c0 bl[0] br[0] wl[81] vdd gnd cell_6t
Xbit_r82_c0 bl[0] br[0] wl[82] vdd gnd cell_6t
Xbit_r83_c0 bl[0] br[0] wl[83] vdd gnd cell_6t
Xbit_r84_c0 bl[0] br[0] wl[84] vdd gnd cell_6t
Xbit_r85_c0 bl[0] br[0] wl[85] vdd gnd cell_6t
Xbit_r86_c0 bl[0] br[0] wl[86] vdd gnd cell_6t
Xbit_r87_c0 bl[0] br[0] wl[87] vdd gnd cell_6t
Xbit_r88_c0 bl[0] br[0] wl[88] vdd gnd cell_6t
Xbit_r89_c0 bl[0] br[0] wl[89] vdd gnd cell_6t
Xbit_r90_c0 bl[0] br[0] wl[90] vdd gnd cell_6t
Xbit_r91_c0 bl[0] br[0] wl[91] vdd gnd cell_6t
Xbit_r92_c0 bl[0] br[0] wl[92] vdd gnd cell_6t
Xbit_r93_c0 bl[0] br[0] wl[93] vdd gnd cell_6t
Xbit_r94_c0 bl[0] br[0] wl[94] vdd gnd cell_6t
Xbit_r95_c0 bl[0] br[0] wl[95] vdd gnd cell_6t
Xbit_r96_c0 bl[0] br[0] wl[96] vdd gnd cell_6t
Xbit_r97_c0 bl[0] br[0] wl[97] vdd gnd cell_6t
Xbit_r98_c0 bl[0] br[0] wl[98] vdd gnd cell_6t
Xbit_r99_c0 bl[0] br[0] wl[99] vdd gnd cell_6t
Xbit_r100_c0 bl[0] br[0] wl[100] vdd gnd cell_6t
Xbit_r101_c0 bl[0] br[0] wl[101] vdd gnd cell_6t
Xbit_r102_c0 bl[0] br[0] wl[102] vdd gnd cell_6t
.ENDS bitline_load

.SUBCKT pinv_6 A Z vdd gnd
Mpinv_pmos Z A vdd vdd pmos_vtg m=1 w=0.27u l=0.05u pd=0.64u ps=0.64u as=0.03375p ad=0.03375p
Mpinv_nmos Z A gnd gnd nmos_vtg m=1 w=0.09u l=0.05u pd=0.28u ps=0.28u as=0.01125p ad=0.01125p
.ENDS pinv_6

.SUBCKT delay_chain in out vdd gnd
Xdinv0 in s1 vdd gnd pinv_6
Xdinv1 s1 s2n1 vdd gnd pinv_6
Xdinv2 s1 s2n2 vdd gnd pinv_6
Xdinv3 s1 s2 vdd gnd pinv_6
Xdinv4 s2 s3n1 vdd gnd pinv_6
Xdinv5 s2 s3n2 vdd gnd pinv_6
Xdinv6 s2 s3 vdd gnd pinv_6
Xdinv7 s3 s4n1 vdd gnd pinv_6
Xdinv8 s3 s4n2 vdd gnd pinv_6
Xdinv9 s3 s4 vdd gnd pinv_6
Xdinv10 s4 s5n1 vdd gnd pinv_6
Xdinv11 s4 s5n2 vdd gnd pinv_6
Xdinv12 s4 out vdd gnd pinv_6
.ENDS delay_chain

.SUBCKT pinv_7 A Z vdd gnd
Mpinv_pmos Z A vdd vdd pmos_vtg m=1 w=0.27u l=0.05u pd=0.64u ps=0.64u as=0.03375p ad=0.03375p
Mpinv_nmos Z A gnd gnd nmos_vtg m=1 w=0.09u l=0.05u pd=0.28u ps=0.28u as=0.01125p ad=0.01125p
.ENDS pinv_7

* ptx M{0} {1} pmos_vtg m=1 w=0.09u l=0.05u pd=0.28u ps=0.28u as=0.01125p ad=0.01125p

.SUBCKT replica_bitline en out vdd gnd
Xrbl_inv bl[0] out vdd gnd pinv_7
Mrbl_access_tx vdd delayed_en bl[0] vdd pmos_vtg m=1 w=0.09u l=0.05u pd=0.28u ps=0.28u as=0.01125p ad=0.01125p
Xdelay_chain en delayed_en vdd gnd delay_chain
Xbitcell bl[0] br[0] delayed_en vdd gnd replica_cell_6t
Xload bl[0] br[0] gnd gnd gnd gnd gnd gnd gnd gnd gnd gnd gnd gnd gnd gnd gnd gnd gnd gnd gnd gnd gnd gnd gnd gnd gnd gnd gnd gnd gnd gnd gnd gnd gnd gnd gnd gnd gnd gnd gnd gnd gnd gnd gnd gnd gnd gnd gnd gnd gnd gnd gnd gnd gnd gnd gnd gnd gnd gnd gnd gnd gnd gnd gnd gnd gnd gnd gnd gnd gnd gnd gnd gnd gnd gnd gnd gnd gnd gnd gnd gnd gnd gnd gnd gnd gnd gnd gnd gnd gnd gnd gnd gnd gnd gnd gnd gnd gnd gnd gnd gnd gnd gnd gnd vdd gnd bitline_load
.ENDS replica_bitline

.SUBCKT control_logic csb web oeb clk s_en w_en tri_en tri_en_bar clk_bar clk_buf vdd gnd
Xmsf_control oeb csb web oe_bar oe cs_bar cs we_bar we clk_buf vdd gnd msf_control
Xinv_clk1_bar clk clk1_bar vdd gnd pinv_2
Xinv_clk2 clk1_bar clk2 vdd gnd pinv_3
Xinv_clk_bar clk2 clk_bar vdd gnd pinv_4
Xinv_clk_buf clk_bar clk_buf vdd gnd pinv_5
Xnand3_rblk_bar clk_bar oe cs rblk_bar vdd gnd pnand3_1
Xinv_rblk rblk_bar rblk vdd gnd pinv_1
Xnor2_tri_en clk_buf oe_bar tri_en vdd gnd pnor2_1
Xnand2_tri_en clk_bar oe tri_en_bar vdd gnd pnand2_1
Xinv_s_en pre_s_en_bar s_en vdd gnd pinv_1
Xinv_pre_s_en_bar pre_s_en pre_s_en_bar vdd gnd pinv_1
Xnand3_w_en_bar clk_bar cs we w_en_bar vdd gnd pnand3_1
Xinv_pre_w_en w_en_bar pre_w_en vdd gnd pinv_1
Xinv_pre_w_en_bar pre_w_en pre_w_en_bar vdd gnd pinv_1
Xinv_w_en2 pre_w_en_bar w_en vdd gnd pinv_1
Xreplica_bitline rblk pre_s_en vdd gnd replica_bitline
.ENDS control_logic

.SUBCKT bitcell_array bl[0] br[0] bl[1] br[1] bl[2] br[2] bl[3] br[3] bl[4] br[4] bl[5] br[5] bl[6] br[6] bl[7] br[7] bl[8] br[8] bl[9] br[9] bl[10] br[10] bl[11] br[11] bl[12] br[12] bl[13] br[13] bl[14] br[14] bl[15] br[15] bl[16] br[16] bl[17] br[17] bl[18] br[18] bl[19] br[19] bl[20] br[20] bl[21] br[21] bl[22] br[22] bl[23] br[23] bl[24] br[24] bl[25] br[25] bl[26] br[26] bl[27] br[27] bl[28] br[28] bl[29] br[29] bl[30] br[30] bl[31] br[31] bl[32] br[32] bl[33] br[33] bl[34] br[34] bl[35] br[35] bl[36] br[36] bl[37] br[37] bl[38] br[38] bl[39] br[39] bl[40] br[40] bl[41] br[41] bl[42] br[42] bl[43] br[43] bl[44] br[44] bl[45] br[45] bl[46] br[46] bl[47] br[47] bl[48] br[48] bl[49] br[49] bl[50] br[50] bl[51] br[51] bl[52] br[52] bl[53] br[53] bl[54] br[54] bl[55] br[55] bl[56] br[56] bl[57] br[57] bl[58] br[58] bl[59] br[59] bl[60] br[60] bl[61] br[61] bl[62] br[62] bl[63] br[63] bl[64] br[64] bl[65] br[65] bl[66] br[66] bl[67] br[67] bl[68] br[68] bl[69] br[69] bl[70] br[70] bl[71] br[71] bl[72] br[72] bl[73] br[73] bl[74] br[74] bl[75] br[75] bl[76] br[76] bl[77] br[77] bl[78] br[78] bl[79] br[79] bl[80] br[80] bl[81] br[81] bl[82] br[82] bl[83] br[83] bl[84] br[84] bl[85] br[85] bl[86] br[86] bl[87] br[87] bl[88] br[88] bl[89] br[89] bl[90] br[90] bl[91] br[91] bl[92] br[92] bl[93] br[93] bl[94] br[94] bl[95] br[95] bl[96] br[96] bl[97] br[97] bl[98] br[98] bl[99] br[99] bl[100] br[100] bl[101] br[101] bl[102] br[102] bl[103] br[103] bl[104] br[104] bl[105] br[105] bl[106] br[106] bl[107] br[107] bl[108] br[108] bl[109] br[109] bl[110] br[110] bl[111] br[111] bl[112] br[112] bl[113] br[113] bl[114] br[114] bl[115] br[115] bl[116] br[116] bl[117] br[117] bl[118] br[118] bl[119] br[119] bl[120] br[120] bl[121] br[121] bl[122] br[122] bl[123] br[123] bl[124] br[124] bl[125] br[125] bl[126] br[126] bl[127] br[127] wl[0] wl[1] wl[2] wl[3] wl[4] wl[5] wl[6] wl[7] wl[8] wl[9] wl[10] wl[11] wl[12] wl[13] wl[14] wl[15] wl[16] wl[17] wl[18] wl[19] wl[20] wl[21] wl[22] wl[23] wl[24] wl[25] wl[26] wl[27] wl[28] wl[29] wl[30] wl[31] wl[32] wl[33] wl[34] wl[35] wl[36] wl[37] wl[38] wl[39] wl[40] wl[41] wl[42] wl[43] wl[44] wl[45] wl[46] wl[47] wl[48] wl[49] wl[50] wl[51] wl[52] wl[53] wl[54] wl[55] wl[56] wl[57] wl[58] wl[59] wl[60] wl[61] wl[62] wl[63] wl[64] wl[65] wl[66] wl[67] wl[68] wl[69] wl[70] wl[71] wl[72] wl[73] wl[74] wl[75] wl[76] wl[77] wl[78] wl[79] wl[80] wl[81] wl[82] wl[83] wl[84] wl[85] wl[86] wl[87] wl[88] wl[89] wl[90] wl[91] wl[92] wl[93] wl[94] wl[95] wl[96] wl[97] wl[98] wl[99] wl[100] wl[101] wl[102] wl[103] wl[104] wl[105] wl[106] wl[107] wl[108] wl[109] wl[110] wl[111] wl[112] wl[113] wl[114] wl[115] wl[116] wl[117] wl[118] wl[119] wl[120] wl[121] wl[122] wl[123] wl[124] wl[125] wl[126] wl[127] wl[128] wl[129] wl[130] wl[131] wl[132] wl[133] wl[134] wl[135] wl[136] wl[137] wl[138] wl[139] wl[140] wl[141] wl[142] wl[143] wl[144] wl[145] wl[146] wl[147] wl[148] wl[149] wl[150] wl[151] wl[152] wl[153] wl[154] wl[155] wl[156] wl[157] wl[158] wl[159] wl[160] wl[161] wl[162] wl[163] wl[164] wl[165] wl[166] wl[167] wl[168] wl[169] wl[170] wl[171] wl[172] wl[173] wl[174] wl[175] wl[176] wl[177] wl[178] wl[179] wl[180] wl[181] wl[182] wl[183] wl[184] wl[185] wl[186] wl[187] wl[188] wl[189] wl[190] wl[191] wl[192] wl[193] wl[194] wl[195] wl[196] wl[197] wl[198] wl[199] wl[200] wl[201] wl[202] wl[203] wl[204] wl[205] wl[206] wl[207] wl[208] wl[209] wl[210] wl[211] wl[212] wl[213] wl[214] wl[215] wl[216] wl[217] wl[218] wl[219] wl[220] wl[221] wl[222] wl[223] wl[224] wl[225] wl[226] wl[227] wl[228] wl[229] wl[230] wl[231] wl[232] wl[233] wl[234] wl[235] wl[236] wl[237] wl[238] wl[239] wl[240] wl[241] wl[242] wl[243] wl[244] wl[245] wl[246] wl[247] wl[248] wl[249] wl[250] wl[251] wl[252] wl[253] wl[254] wl[255] wl[256] wl[257] wl[258] wl[259] wl[260] wl[261] wl[262] wl[263] wl[264] wl[265] wl[266] wl[267] wl[268] wl[269] wl[270] wl[271] wl[272] wl[273] wl[274] wl[275] wl[276] wl[277] wl[278] wl[279] wl[280] wl[281] wl[282] wl[283] wl[284] wl[285] wl[286] wl[287] wl[288] wl[289] wl[290] wl[291] wl[292] wl[293] wl[294] wl[295] wl[296] wl[297] wl[298] wl[299] wl[300] wl[301] wl[302] wl[303] wl[304] wl[305] wl[306] wl[307] wl[308] wl[309] wl[310] wl[311] wl[312] wl[313] wl[314] wl[315] wl[316] wl[317] wl[318] wl[319] wl[320] wl[321] wl[322] wl[323] wl[324] wl[325] wl[326] wl[327] wl[328] wl[329] wl[330] wl[331] wl[332] wl[333] wl[334] wl[335] wl[336] wl[337] wl[338] wl[339] wl[340] wl[341] wl[342] wl[343] wl[344] wl[345] wl[346] wl[347] wl[348] wl[349] wl[350] wl[351] wl[352] wl[353] wl[354] wl[355] wl[356] wl[357] wl[358] wl[359] wl[360] wl[361] wl[362] wl[363] wl[364] wl[365] wl[366] wl[367] wl[368] wl[369] wl[370] wl[371] wl[372] wl[373] wl[374] wl[375] wl[376] wl[377] wl[378] wl[379] wl[380] wl[381] wl[382] wl[383] wl[384] wl[385] wl[386] wl[387] wl[388] wl[389] wl[390] wl[391] wl[392] wl[393] wl[394] wl[395] wl[396] wl[397] wl[398] wl[399] wl[400] wl[401] wl[402] wl[403] wl[404] wl[405] wl[406] wl[407] wl[408] wl[409] wl[410] wl[411] wl[412] wl[413] wl[414] wl[415] wl[416] wl[417] wl[418] wl[419] wl[420] wl[421] wl[422] wl[423] wl[424] wl[425] wl[426] wl[427] wl[428] wl[429] wl[430] wl[431] wl[432] wl[433] wl[434] wl[435] wl[436] wl[437] wl[438] wl[439] wl[440] wl[441] wl[442] wl[443] wl[444] wl[445] wl[446] wl[447] wl[448] wl[449] wl[450] wl[451] wl[452] wl[453] wl[454] wl[455] wl[456] wl[457] wl[458] wl[459] wl[460] wl[461] wl[462] wl[463] wl[464] wl[465] wl[466] wl[467] wl[468] wl[469] wl[470] wl[471] wl[472] wl[473] wl[474] wl[475] wl[476] wl[477] wl[478] wl[479] wl[480] wl[481] wl[482] wl[483] wl[484] wl[485] wl[486] wl[487] wl[488] wl[489] wl[490] wl[491] wl[492] wl[493] wl[494] wl[495] wl[496] wl[497] wl[498] wl[499] wl[500] wl[501] wl[502] wl[503] wl[504] wl[505] wl[506] wl[507] wl[508] wl[509] wl[510] wl[511] vdd gnd
Xbit_r0_c0 bl[0] br[0] wl[0] vdd gnd cell_6t
Xbit_r1_c0 bl[0] br[0] wl[1] vdd gnd cell_6t
Xbit_r2_c0 bl[0] br[0] wl[2] vdd gnd cell_6t
Xbit_r3_c0 bl[0] br[0] wl[3] vdd gnd cell_6t
Xbit_r4_c0 bl[0] br[0] wl[4] vdd gnd cell_6t
Xbit_r5_c0 bl[0] br[0] wl[5] vdd gnd cell_6t
Xbit_r6_c0 bl[0] br[0] wl[6] vdd gnd cell_6t
Xbit_r7_c0 bl[0] br[0] wl[7] vdd gnd cell_6t
Xbit_r8_c0 bl[0] br[0] wl[8] vdd gnd cell_6t
Xbit_r9_c0 bl[0] br[0] wl[9] vdd gnd cell_6t
Xbit_r10_c0 bl[0] br[0] wl[10] vdd gnd cell_6t
Xbit_r11_c0 bl[0] br[0] wl[11] vdd gnd cell_6t
Xbit_r12_c0 bl[0] br[0] wl[12] vdd gnd cell_6t
Xbit_r13_c0 bl[0] br[0] wl[13] vdd gnd cell_6t
Xbit_r14_c0 bl[0] br[0] wl[14] vdd gnd cell_6t
Xbit_r15_c0 bl[0] br[0] wl[15] vdd gnd cell_6t
Xbit_r16_c0 bl[0] br[0] wl[16] vdd gnd cell_6t
Xbit_r17_c0 bl[0] br[0] wl[17] vdd gnd cell_6t
Xbit_r18_c0 bl[0] br[0] wl[18] vdd gnd cell_6t
Xbit_r19_c0 bl[0] br[0] wl[19] vdd gnd cell_6t
Xbit_r20_c0 bl[0] br[0] wl[20] vdd gnd cell_6t
Xbit_r21_c0 bl[0] br[0] wl[21] vdd gnd cell_6t
Xbit_r22_c0 bl[0] br[0] wl[22] vdd gnd cell_6t
Xbit_r23_c0 bl[0] br[0] wl[23] vdd gnd cell_6t
Xbit_r24_c0 bl[0] br[0] wl[24] vdd gnd cell_6t
Xbit_r25_c0 bl[0] br[0] wl[25] vdd gnd cell_6t
Xbit_r26_c0 bl[0] br[0] wl[26] vdd gnd cell_6t
Xbit_r27_c0 bl[0] br[0] wl[27] vdd gnd cell_6t
Xbit_r28_c0 bl[0] br[0] wl[28] vdd gnd cell_6t
Xbit_r29_c0 bl[0] br[0] wl[29] vdd gnd cell_6t
Xbit_r30_c0 bl[0] br[0] wl[30] vdd gnd cell_6t
Xbit_r31_c0 bl[0] br[0] wl[31] vdd gnd cell_6t
Xbit_r32_c0 bl[0] br[0] wl[32] vdd gnd cell_6t
Xbit_r33_c0 bl[0] br[0] wl[33] vdd gnd cell_6t
Xbit_r34_c0 bl[0] br[0] wl[34] vdd gnd cell_6t
Xbit_r35_c0 bl[0] br[0] wl[35] vdd gnd cell_6t
Xbit_r36_c0 bl[0] br[0] wl[36] vdd gnd cell_6t
Xbit_r37_c0 bl[0] br[0] wl[37] vdd gnd cell_6t
Xbit_r38_c0 bl[0] br[0] wl[38] vdd gnd cell_6t
Xbit_r39_c0 bl[0] br[0] wl[39] vdd gnd cell_6t
Xbit_r40_c0 bl[0] br[0] wl[40] vdd gnd cell_6t
Xbit_r41_c0 bl[0] br[0] wl[41] vdd gnd cell_6t
Xbit_r42_c0 bl[0] br[0] wl[42] vdd gnd cell_6t
Xbit_r43_c0 bl[0] br[0] wl[43] vdd gnd cell_6t
Xbit_r44_c0 bl[0] br[0] wl[44] vdd gnd cell_6t
Xbit_r45_c0 bl[0] br[0] wl[45] vdd gnd cell_6t
Xbit_r46_c0 bl[0] br[0] wl[46] vdd gnd cell_6t
Xbit_r47_c0 bl[0] br[0] wl[47] vdd gnd cell_6t
Xbit_r48_c0 bl[0] br[0] wl[48] vdd gnd cell_6t
Xbit_r49_c0 bl[0] br[0] wl[49] vdd gnd cell_6t
Xbit_r50_c0 bl[0] br[0] wl[50] vdd gnd cell_6t
Xbit_r51_c0 bl[0] br[0] wl[51] vdd gnd cell_6t
Xbit_r52_c0 bl[0] br[0] wl[52] vdd gnd cell_6t
Xbit_r53_c0 bl[0] br[0] wl[53] vdd gnd cell_6t
Xbit_r54_c0 bl[0] br[0] wl[54] vdd gnd cell_6t
Xbit_r55_c0 bl[0] br[0] wl[55] vdd gnd cell_6t
Xbit_r56_c0 bl[0] br[0] wl[56] vdd gnd cell_6t
Xbit_r57_c0 bl[0] br[0] wl[57] vdd gnd cell_6t
Xbit_r58_c0 bl[0] br[0] wl[58] vdd gnd cell_6t
Xbit_r59_c0 bl[0] br[0] wl[59] vdd gnd cell_6t
Xbit_r60_c0 bl[0] br[0] wl[60] vdd gnd cell_6t
Xbit_r61_c0 bl[0] br[0] wl[61] vdd gnd cell_6t
Xbit_r62_c0 bl[0] br[0] wl[62] vdd gnd cell_6t
Xbit_r63_c0 bl[0] br[0] wl[63] vdd gnd cell_6t
Xbit_r64_c0 bl[0] br[0] wl[64] vdd gnd cell_6t
Xbit_r65_c0 bl[0] br[0] wl[65] vdd gnd cell_6t
Xbit_r66_c0 bl[0] br[0] wl[66] vdd gnd cell_6t
Xbit_r67_c0 bl[0] br[0] wl[67] vdd gnd cell_6t
Xbit_r68_c0 bl[0] br[0] wl[68] vdd gnd cell_6t
Xbit_r69_c0 bl[0] br[0] wl[69] vdd gnd cell_6t
Xbit_r70_c0 bl[0] br[0] wl[70] vdd gnd cell_6t
Xbit_r71_c0 bl[0] br[0] wl[71] vdd gnd cell_6t
Xbit_r72_c0 bl[0] br[0] wl[72] vdd gnd cell_6t
Xbit_r73_c0 bl[0] br[0] wl[73] vdd gnd cell_6t
Xbit_r74_c0 bl[0] br[0] wl[74] vdd gnd cell_6t
Xbit_r75_c0 bl[0] br[0] wl[75] vdd gnd cell_6t
Xbit_r76_c0 bl[0] br[0] wl[76] vdd gnd cell_6t
Xbit_r77_c0 bl[0] br[0] wl[77] vdd gnd cell_6t
Xbit_r78_c0 bl[0] br[0] wl[78] vdd gnd cell_6t
Xbit_r79_c0 bl[0] br[0] wl[79] vdd gnd cell_6t
Xbit_r80_c0 bl[0] br[0] wl[80] vdd gnd cell_6t
Xbit_r81_c0 bl[0] br[0] wl[81] vdd gnd cell_6t
Xbit_r82_c0 bl[0] br[0] wl[82] vdd gnd cell_6t
Xbit_r83_c0 bl[0] br[0] wl[83] vdd gnd cell_6t
Xbit_r84_c0 bl[0] br[0] wl[84] vdd gnd cell_6t
Xbit_r85_c0 bl[0] br[0] wl[85] vdd gnd cell_6t
Xbit_r86_c0 bl[0] br[0] wl[86] vdd gnd cell_6t
Xbit_r87_c0 bl[0] br[0] wl[87] vdd gnd cell_6t
Xbit_r88_c0 bl[0] br[0] wl[88] vdd gnd cell_6t
Xbit_r89_c0 bl[0] br[0] wl[89] vdd gnd cell_6t
Xbit_r90_c0 bl[0] br[0] wl[90] vdd gnd cell_6t
Xbit_r91_c0 bl[0] br[0] wl[91] vdd gnd cell_6t
Xbit_r92_c0 bl[0] br[0] wl[92] vdd gnd cell_6t
Xbit_r93_c0 bl[0] br[0] wl[93] vdd gnd cell_6t
Xbit_r94_c0 bl[0] br[0] wl[94] vdd gnd cell_6t
Xbit_r95_c0 bl[0] br[0] wl[95] vdd gnd cell_6t
Xbit_r96_c0 bl[0] br[0] wl[96] vdd gnd cell_6t
Xbit_r97_c0 bl[0] br[0] wl[97] vdd gnd cell_6t
Xbit_r98_c0 bl[0] br[0] wl[98] vdd gnd cell_6t
Xbit_r99_c0 bl[0] br[0] wl[99] vdd gnd cell_6t
Xbit_r100_c0 bl[0] br[0] wl[100] vdd gnd cell_6t
Xbit_r101_c0 bl[0] br[0] wl[101] vdd gnd cell_6t
Xbit_r102_c0 bl[0] br[0] wl[102] vdd gnd cell_6t
Xbit_r103_c0 bl[0] br[0] wl[103] vdd gnd cell_6t
Xbit_r104_c0 bl[0] br[0] wl[104] vdd gnd cell_6t
Xbit_r105_c0 bl[0] br[0] wl[105] vdd gnd cell_6t
Xbit_r106_c0 bl[0] br[0] wl[106] vdd gnd cell_6t
Xbit_r107_c0 bl[0] br[0] wl[107] vdd gnd cell_6t
Xbit_r108_c0 bl[0] br[0] wl[108] vdd gnd cell_6t
Xbit_r109_c0 bl[0] br[0] wl[109] vdd gnd cell_6t
Xbit_r110_c0 bl[0] br[0] wl[110] vdd gnd cell_6t
Xbit_r111_c0 bl[0] br[0] wl[111] vdd gnd cell_6t
Xbit_r112_c0 bl[0] br[0] wl[112] vdd gnd cell_6t
Xbit_r113_c0 bl[0] br[0] wl[113] vdd gnd cell_6t
Xbit_r114_c0 bl[0] br[0] wl[114] vdd gnd cell_6t
Xbit_r115_c0 bl[0] br[0] wl[115] vdd gnd cell_6t
Xbit_r116_c0 bl[0] br[0] wl[116] vdd gnd cell_6t
Xbit_r117_c0 bl[0] br[0] wl[117] vdd gnd cell_6t
Xbit_r118_c0 bl[0] br[0] wl[118] vdd gnd cell_6t
Xbit_r119_c0 bl[0] br[0] wl[119] vdd gnd cell_6t
Xbit_r120_c0 bl[0] br[0] wl[120] vdd gnd cell_6t
Xbit_r121_c0 bl[0] br[0] wl[121] vdd gnd cell_6t
Xbit_r122_c0 bl[0] br[0] wl[122] vdd gnd cell_6t
Xbit_r123_c0 bl[0] br[0] wl[123] vdd gnd cell_6t
Xbit_r124_c0 bl[0] br[0] wl[124] vdd gnd cell_6t
Xbit_r125_c0 bl[0] br[0] wl[125] vdd gnd cell_6t
Xbit_r126_c0 bl[0] br[0] wl[126] vdd gnd cell_6t
Xbit_r127_c0 bl[0] br[0] wl[127] vdd gnd cell_6t
Xbit_r128_c0 bl[0] br[0] wl[128] vdd gnd cell_6t
Xbit_r129_c0 bl[0] br[0] wl[129] vdd gnd cell_6t
Xbit_r130_c0 bl[0] br[0] wl[130] vdd gnd cell_6t
Xbit_r131_c0 bl[0] br[0] wl[131] vdd gnd cell_6t
Xbit_r132_c0 bl[0] br[0] wl[132] vdd gnd cell_6t
Xbit_r133_c0 bl[0] br[0] wl[133] vdd gnd cell_6t
Xbit_r134_c0 bl[0] br[0] wl[134] vdd gnd cell_6t
Xbit_r135_c0 bl[0] br[0] wl[135] vdd gnd cell_6t
Xbit_r136_c0 bl[0] br[0] wl[136] vdd gnd cell_6t
Xbit_r137_c0 bl[0] br[0] wl[137] vdd gnd cell_6t
Xbit_r138_c0 bl[0] br[0] wl[138] vdd gnd cell_6t
Xbit_r139_c0 bl[0] br[0] wl[139] vdd gnd cell_6t
Xbit_r140_c0 bl[0] br[0] wl[140] vdd gnd cell_6t
Xbit_r141_c0 bl[0] br[0] wl[141] vdd gnd cell_6t
Xbit_r142_c0 bl[0] br[0] wl[142] vdd gnd cell_6t
Xbit_r143_c0 bl[0] br[0] wl[143] vdd gnd cell_6t
Xbit_r144_c0 bl[0] br[0] wl[144] vdd gnd cell_6t
Xbit_r145_c0 bl[0] br[0] wl[145] vdd gnd cell_6t
Xbit_r146_c0 bl[0] br[0] wl[146] vdd gnd cell_6t
Xbit_r147_c0 bl[0] br[0] wl[147] vdd gnd cell_6t
Xbit_r148_c0 bl[0] br[0] wl[148] vdd gnd cell_6t
Xbit_r149_c0 bl[0] br[0] wl[149] vdd gnd cell_6t
Xbit_r150_c0 bl[0] br[0] wl[150] vdd gnd cell_6t
Xbit_r151_c0 bl[0] br[0] wl[151] vdd gnd cell_6t
Xbit_r152_c0 bl[0] br[0] wl[152] vdd gnd cell_6t
Xbit_r153_c0 bl[0] br[0] wl[153] vdd gnd cell_6t
Xbit_r154_c0 bl[0] br[0] wl[154] vdd gnd cell_6t
Xbit_r155_c0 bl[0] br[0] wl[155] vdd gnd cell_6t
Xbit_r156_c0 bl[0] br[0] wl[156] vdd gnd cell_6t
Xbit_r157_c0 bl[0] br[0] wl[157] vdd gnd cell_6t
Xbit_r158_c0 bl[0] br[0] wl[158] vdd gnd cell_6t
Xbit_r159_c0 bl[0] br[0] wl[159] vdd gnd cell_6t
Xbit_r160_c0 bl[0] br[0] wl[160] vdd gnd cell_6t
Xbit_r161_c0 bl[0] br[0] wl[161] vdd gnd cell_6t
Xbit_r162_c0 bl[0] br[0] wl[162] vdd gnd cell_6t
Xbit_r163_c0 bl[0] br[0] wl[163] vdd gnd cell_6t
Xbit_r164_c0 bl[0] br[0] wl[164] vdd gnd cell_6t
Xbit_r165_c0 bl[0] br[0] wl[165] vdd gnd cell_6t
Xbit_r166_c0 bl[0] br[0] wl[166] vdd gnd cell_6t
Xbit_r167_c0 bl[0] br[0] wl[167] vdd gnd cell_6t
Xbit_r168_c0 bl[0] br[0] wl[168] vdd gnd cell_6t
Xbit_r169_c0 bl[0] br[0] wl[169] vdd gnd cell_6t
Xbit_r170_c0 bl[0] br[0] wl[170] vdd gnd cell_6t
Xbit_r171_c0 bl[0] br[0] wl[171] vdd gnd cell_6t
Xbit_r172_c0 bl[0] br[0] wl[172] vdd gnd cell_6t
Xbit_r173_c0 bl[0] br[0] wl[173] vdd gnd cell_6t
Xbit_r174_c0 bl[0] br[0] wl[174] vdd gnd cell_6t
Xbit_r175_c0 bl[0] br[0] wl[175] vdd gnd cell_6t
Xbit_r176_c0 bl[0] br[0] wl[176] vdd gnd cell_6t
Xbit_r177_c0 bl[0] br[0] wl[177] vdd gnd cell_6t
Xbit_r178_c0 bl[0] br[0] wl[178] vdd gnd cell_6t
Xbit_r179_c0 bl[0] br[0] wl[179] vdd gnd cell_6t
Xbit_r180_c0 bl[0] br[0] wl[180] vdd gnd cell_6t
Xbit_r181_c0 bl[0] br[0] wl[181] vdd gnd cell_6t
Xbit_r182_c0 bl[0] br[0] wl[182] vdd gnd cell_6t
Xbit_r183_c0 bl[0] br[0] wl[183] vdd gnd cell_6t
Xbit_r184_c0 bl[0] br[0] wl[184] vdd gnd cell_6t
Xbit_r185_c0 bl[0] br[0] wl[185] vdd gnd cell_6t
Xbit_r186_c0 bl[0] br[0] wl[186] vdd gnd cell_6t
Xbit_r187_c0 bl[0] br[0] wl[187] vdd gnd cell_6t
Xbit_r188_c0 bl[0] br[0] wl[188] vdd gnd cell_6t
Xbit_r189_c0 bl[0] br[0] wl[189] vdd gnd cell_6t
Xbit_r190_c0 bl[0] br[0] wl[190] vdd gnd cell_6t
Xbit_r191_c0 bl[0] br[0] wl[191] vdd gnd cell_6t
Xbit_r192_c0 bl[0] br[0] wl[192] vdd gnd cell_6t
Xbit_r193_c0 bl[0] br[0] wl[193] vdd gnd cell_6t
Xbit_r194_c0 bl[0] br[0] wl[194] vdd gnd cell_6t
Xbit_r195_c0 bl[0] br[0] wl[195] vdd gnd cell_6t
Xbit_r196_c0 bl[0] br[0] wl[196] vdd gnd cell_6t
Xbit_r197_c0 bl[0] br[0] wl[197] vdd gnd cell_6t
Xbit_r198_c0 bl[0] br[0] wl[198] vdd gnd cell_6t
Xbit_r199_c0 bl[0] br[0] wl[199] vdd gnd cell_6t
Xbit_r200_c0 bl[0] br[0] wl[200] vdd gnd cell_6t
Xbit_r201_c0 bl[0] br[0] wl[201] vdd gnd cell_6t
Xbit_r202_c0 bl[0] br[0] wl[202] vdd gnd cell_6t
Xbit_r203_c0 bl[0] br[0] wl[203] vdd gnd cell_6t
Xbit_r204_c0 bl[0] br[0] wl[204] vdd gnd cell_6t
Xbit_r205_c0 bl[0] br[0] wl[205] vdd gnd cell_6t
Xbit_r206_c0 bl[0] br[0] wl[206] vdd gnd cell_6t
Xbit_r207_c0 bl[0] br[0] wl[207] vdd gnd cell_6t
Xbit_r208_c0 bl[0] br[0] wl[208] vdd gnd cell_6t
Xbit_r209_c0 bl[0] br[0] wl[209] vdd gnd cell_6t
Xbit_r210_c0 bl[0] br[0] wl[210] vdd gnd cell_6t
Xbit_r211_c0 bl[0] br[0] wl[211] vdd gnd cell_6t