**************************************************
* OpenRAM generated memory.
* Words: 256
* Data bits: 32
* Banks: 1
* Column mux: 4:1
**************************************************

* ptx M{0} {1} n m=1 w=2.4u l=0.6u pd=6.0u ps=6.0u as=3.6p ad=3.6p

* ptx M{0} {1} p m=1 w=2.4u l=0.6u pd=6.0u ps=6.0u as=3.6p ad=3.6p

.SUBCKT pnand2_1 A B Z vdd gnd
Mpnand2_pmos1 vdd A Z vdd p m=1 w=2.4u l=0.6u pd=6.0u ps=6.0u as=3.6p ad=3.6p
Mpnand2_pmos2 Z B vdd vdd p m=1 w=2.4u l=0.6u pd=6.0u ps=6.0u as=3.6p ad=3.6p
Mpnand2_nmos1 Z B net1 gnd n m=1 w=2.4u l=0.6u pd=6.0u ps=6.0u as=3.6p ad=3.6p
Mpnand2_nmos2 net1 A gnd gnd n m=1 w=2.4u l=0.6u pd=6.0u ps=6.0u as=3.6p ad=3.6p
.ENDS pnand2_1

.SUBCKT pnand3_1 A B C Z vdd gnd
Mpnand3_pmos1 vdd A Z vdd p m=1 w=2.4u l=0.6u pd=6.0u ps=6.0u as=3.6p ad=3.6p
Mpnand3_pmos2 Z B vdd vdd p m=1 w=2.4u l=0.6u pd=6.0u ps=6.0u as=3.6p ad=3.6p
Mpnand3_pmos3 Z C vdd vdd p m=1 w=2.4u l=0.6u pd=6.0u ps=6.0u as=3.6p ad=3.6p
Mpnand3_nmos1 Z C net1 gnd n m=1 w=2.4u l=0.6u pd=6.0u ps=6.0u as=3.6p ad=3.6p
Mpnand3_nmos2 net1 B net2 gnd n m=1 w=2.4u l=0.6u pd=6.0u ps=6.0u as=3.6p ad=3.6p
Mpnand3_nmos3 net2 A gnd gnd n m=1 w=2.4u l=0.6u pd=6.0u ps=6.0u as=3.6p ad=3.6p
.ENDS pnand3_1

* ptx M{0} {1} n m=1 w=1.2u l=0.6u pd=3.6u ps=3.6u as=1.8p ad=1.8p

* ptx M{0} {1} p m=1 w=3.6u l=0.6u pd=8.4u ps=8.4u as=5.4p ad=5.4p

.SUBCKT pnor2_1 A B Z vdd gnd
Mpnor2_pmos1 vdd A net1 vdd p m=1 w=3.6u l=0.6u pd=8.4u ps=8.4u as=5.4p ad=5.4p
Mpnor2_pmos2 net1 B Z vdd p m=1 w=3.6u l=0.6u pd=8.4u ps=8.4u as=5.4p ad=5.4p
Mpnor2_nmos1 Z A gnd gnd n m=1 w=1.2u l=0.6u pd=3.6u ps=3.6u as=1.8p ad=1.8p
Mpnor2_nmos2 Z B gnd gnd n m=1 w=1.2u l=0.6u pd=3.6u ps=3.6u as=1.8p ad=1.8p
.ENDS pnor2_1

.SUBCKT pinv_1 A Z vdd gnd
Mpinv_pmos Z A vdd vdd p m=1 w=2.4u l=0.6u pd=6.0u ps=6.0u as=3.6p ad=3.6p
Mpinv_nmos Z A gnd gnd n m=1 w=1.2u l=0.6u pd=3.6u ps=3.6u as=1.8p ad=1.8p
.ENDS pinv_1

* ptx M{0} {1} n m=2 w=1.2u l=0.6u pd=3.6u ps=3.6u as=1.8p ad=1.8p

* ptx M{0} {1} p m=2 w=2.4u l=0.6u pd=6.0u ps=6.0u as=3.6p ad=3.6p

.SUBCKT pinv_2 A Z vdd gnd
Mpinv_pmos Z A vdd vdd p m=2 w=2.4u l=0.6u pd=6.0u ps=6.0u as=3.6p ad=3.6p
Mpinv_nmos Z A gnd gnd n m=2 w=1.2u l=0.6u pd=3.6u ps=3.6u as=1.8p ad=1.8p
.ENDS pinv_2

* ptx M{0} {1} n m=3 w=1.65u l=0.6u pd=4.5u ps=4.5u as=2.475p ad=2.475p

* ptx M{0} {1} p m=3 w=3.15u l=0.6u pd=7.5u ps=7.5u as=4.725p ad=4.725p

.SUBCKT pinv_3 A Z vdd gnd
Mpinv_pmos Z A vdd vdd p m=3 w=3.15u l=0.6u pd=7.5u ps=7.5u as=4.725p ad=4.725p
Mpinv_nmos Z A gnd gnd n m=3 w=1.65u l=0.6u pd=4.5u ps=4.5u as=2.475p ad=2.475p
.ENDS pinv_3

* ptx M{0} {1} n m=5 w=1.95u l=0.6u pd=5.1u ps=5.1u as=2.925p ad=2.925p

* ptx M{0} {1} p m=5 w=3.9u l=0.6u pd=9.0u ps=9.0u as=5.85p ad=5.85p

.SUBCKT pinv_4 A Z vdd gnd
Mpinv_pmos Z A vdd vdd p m=5 w=3.9u l=0.6u pd=9.0u ps=9.0u as=5.85p ad=5.85p
Mpinv_nmos Z A gnd gnd n m=5 w=1.95u l=0.6u pd=5.1u ps=5.1u as=2.925p ad=2.925p
.ENDS pinv_4

* ptx M{0} {1} n m=10 w=1.95u l=0.6u pd=5.1u ps=5.1u as=2.925p ad=2.925p

* ptx M{0} {1} p m=10 w=3.9u l=0.6u pd=9.0u ps=9.0u as=5.85p ad=5.85p

.SUBCKT pinv_5 A Z vdd gnd
Mpinv_pmos Z A vdd vdd p m=10 w=3.9u l=0.6u pd=9.0u ps=9.0u as=5.85p ad=5.85p
Mpinv_nmos Z A gnd gnd n m=10 w=1.95u l=0.6u pd=5.1u ps=5.1u as=2.925p ad=2.925p
.ENDS pinv_5
*master-slave flip-flop with both output and inverted ouput

.subckt ms_flop din dout dout_bar clk vdd gnd
xmaster din mout mout_bar clk clk_bar vdd gnd dlatch
xslave mout_bar dout_bar dout clk_bar clk_nn vdd gnd dlatch
.ends flop

.subckt dlatch din dout dout_bar clk clk_bar vdd gnd
*clk inverter
mPff1 clk_bar clk vdd vdd p W=1.8u L=0.6u m=1
mNff1 clk_bar clk gnd gnd n W=0.9u L=0.6u m=1

*transmission gate 1
mtmP1 din clk int1 vdd p W=1.8u L=0.6u m=1
mtmN1 din clk_bar int1 gnd n W=0.9u L=0.6u m=1

*foward inverter
mPff3 dout_bar int1 vdd vdd p W=1.8u L=0.6u m=1
mNff3 dout_bar int1 gnd gnd n W=0.9u L=0.6u m=1

*backward inverter
mPff4 dout dout_bar vdd vdd p W=1.8u L=0.6u m=1
mNf4 dout dout_bar gnd gnd n W=0.9u L=0.6u m=1

*transmission gate 2
mtmP2 int1 clk_bar dout vdd p W=1.8u L=0.6u m=1
mtmN2 int1 clk dout gnd n W=0.9u L=0.6u m=1
.ends dlatch


.SUBCKT msf_control din[0] din[1] din[2] dout[0] dout_bar[0] dout[1] dout_bar[1] dout[2] dout_bar[2] clk vdd gnd
XXdff0 din[0] dout[0] dout_bar[0] clk vdd gnd ms_flop
XXdff1 din[1] dout[1] dout_bar[1] clk vdd gnd ms_flop
XXdff2 din[2] dout[2] dout_bar[2] clk vdd gnd ms_flop
.ENDS msf_control

*********************** "cell_6t" ******************************
.SUBCKT replica_cell_6t bl br wl vdd gnd
M_1 gnd net_2 vdd vdd p W='0.9u' L=1.2u
M_2 net_2 gnd vdd vdd p W='0.9u' L=1.2u
M_3 br wl net_2 gnd n W='1.2u' L=0.6u
M_4 bl wl gnd gnd n W='1.2u' L=0.6u
M_5 net_2 gnd gnd gnd n W='2.4u' L=0.6u
M_6 gnd net_2 gnd gnd n W='2.4u' L=0.6u
.ENDS	$ replica_cell_6t

*********************** "cell_6t" ******************************
.SUBCKT cell_6t bl br wl vdd gnd
M_1 net_1 net_2 vdd vdd p W='0.9u' L=1.2u
M_2 net_2 net_1 vdd vdd p W='0.9u' L=1.2u
M_3 br wl net_2 gnd n W='1.2u' L=0.6u
M_4 bl wl net_1 gnd n W='1.2u' L=0.6u
M_5 net_2 net_1 gnd gnd n W='2.4u' L=0.6u
M_6 net_1 net_2 gnd gnd n W='2.4u' L=0.6u
.ENDS	$ cell_6t

.SUBCKT bitline_load bl[0] br[0] wl[0] wl[1] wl[2] wl[3] wl[4] wl[5] wl[6] wl[7] wl[8] wl[9] wl[10] wl[11] wl[12] vdd gnd
Xbit_r0_c0 bl[0] br[0] wl[0] vdd gnd cell_6t
Xbit_r1_c0 bl[0] br[0] wl[1] vdd gnd cell_6t
Xbit_r2_c0 bl[0] br[0] wl[2] vdd gnd cell_6t
Xbit_r3_c0 bl[0] br[0] wl[3] vdd gnd cell_6t
Xbit_r4_c0 bl[0] br[0] wl[4] vdd gnd cell_6t
Xbit_r5_c0 bl[0] br[0] wl[5] vdd gnd cell_6t
Xbit_r6_c0 bl[0] br[0] wl[6] vdd gnd cell_6t
Xbit_r7_c0 bl[0] br[0] wl[7] vdd gnd cell_6t
Xbit_r8_c0 bl[0] br[0] wl[8] vdd gnd cell_6t
Xbit_r9_c0 bl[0] br[0] wl[9] vdd gnd cell_6t
Xbit_r10_c0 bl[0] br[0] wl[10] vdd gnd cell_6t
Xbit_r11_c0 bl[0] br[0] wl[11] vdd gnd cell_6t
Xbit_r12_c0 bl[0] br[0] wl[12] vdd gnd cell_6t
.ENDS bitline_load

.SUBCKT pinv_6 A Z vdd gnd
Mpinv_pmos Z A vdd vdd p m=1 w=2.4u l=0.6u pd=6.0u ps=6.0u as=3.6p ad=3.6p
Mpinv_nmos Z A gnd gnd n m=1 w=1.2u l=0.6u pd=3.6u ps=3.6u as=1.8p ad=1.8p
.ENDS pinv_6

.SUBCKT delay_chain in out vdd gnd
Xdinv0 in s1 vdd gnd pinv_6
Xdinv1 s1 s2n1 vdd gnd pinv_6
Xdinv2 s1 s2n2 vdd gnd pinv_6
Xdinv3 s1 s2 vdd gnd pinv_6
Xdinv4 s2 s3n1 vdd gnd pinv_6
Xdinv5 s2 s3n2 vdd gnd pinv_6
Xdinv6 s2 s3 vdd gnd pinv_6
Xdinv7 s3 s4n1 vdd gnd pinv_6
Xdinv8 s3 s4n2 vdd gnd pinv_6
Xdinv9 s3 s4 vdd gnd pinv_6
Xdinv10 s4 s5n1 vdd gnd pinv_6
Xdinv11 s4 s5n2 vdd gnd pinv_6
Xdinv12 s4 out vdd gnd pinv_6
.ENDS delay_chain

.SUBCKT pinv_7 A Z vdd gnd
Mpinv_pmos Z A vdd vdd p m=1 w=2.4u l=0.6u pd=6.0u ps=6.0u as=3.6p ad=3.6p
Mpinv_nmos Z A gnd gnd n m=1 w=1.2u l=0.6u pd=3.6u ps=3.6u as=1.8p ad=1.8p
.ENDS pinv_7

* ptx M{0} {1} p m=1 w=1.2u l=0.6u pd=3.6u ps=3.6u as=1.8p ad=1.8p

.SUBCKT replica_bitline en out vdd gnd
Xrbl_inv bl[0] out vdd gnd pinv_7
Mrbl_access_tx vdd delayed_en bl[0] vdd p m=1 w=1.2u l=0.6u pd=3.6u ps=3.6u as=1.8p ad=1.8p
Xdelay_chain en delayed_en vdd gnd delay_chain
Xbitcell bl[0] br[0] delayed_en vdd gnd replica_cell_6t
Xload bl[0] br[0] gnd gnd gnd gnd gnd gnd gnd gnd gnd gnd gnd gnd gnd vdd gnd bitline_load
.ENDS replica_bitline

.SUBCKT control_logic csb web oeb clk s_en w_en tri_en tri_en_bar clk_bar clk_buf vdd gnd
Xmsf_control oeb csb web oe_bar oe cs_bar cs we_bar we clk_buf vdd gnd msf_control
Xinv_clk1_bar clk clk1_bar vdd gnd pinv_2
Xinv_clk2 clk1_bar clk2 vdd gnd pinv_3
Xinv_clk_bar clk2 clk_bar vdd gnd pinv_4
Xinv_clk_buf clk_bar clk_buf vdd gnd pinv_5
Xnand3_rblk_bar clk_bar oe cs rblk_bar vdd gnd pnand3_1
Xinv_rblk rblk_bar rblk vdd gnd pinv_1
Xnor2_tri_en clk_buf oe_bar tri_en vdd gnd pnor2_1
Xnand2_tri_en clk_bar oe tri_en_bar vdd gnd pnand2_1
Xinv_s_en pre_s_en_bar s_en vdd gnd pinv_1
Xinv_pre_s_en_bar pre_s_en pre_s_en_bar vdd gnd pinv_1
Xnand3_w_en_bar clk_bar cs we w_en_bar vdd gnd pnand3_1
Xinv_pre_w_en w_en_bar pre_w_en vdd gnd pinv_1
Xinv_pre_w_en_bar pre_w_en pre_w_en_bar vdd gnd pinv_1
Xinv_w_en2 pre_w_en_bar w_en vdd gnd pinv_1
Xreplica_bitline rblk pre_s_en vdd gnd replica_bitline
.ENDS control_logic

.SUBCKT bitcell_array bl[0] br[0] bl[1] br[1] bl[2] br[2] bl[3] br[3] bl[4] br[4] bl[5] br[5] bl[6] br[6] bl[7] br[7] bl[8] br[8] bl[9] br[9] bl[10] br[10] bl[11] br[11] bl[12] br[12] bl[13] br[13] bl[14] br[14] bl[15] br[15] bl[16] br[16] bl[17] br[17] bl[18] br[18] bl[19] br[19] bl[20] br[20] bl[21] br[21] bl[22] br[22] bl[23] br[23] bl[24] br[24] bl[25] br[25] bl[26] br[26] bl[27] br[27] bl[28] br[28] bl[29] br[29] bl[30] br[30] bl[31] br[31] bl[32] br[32] bl[33] br[33] bl[34] br[34] bl[35] br[35] bl[36] br[36] bl[37] br[37] bl[38] br[38] bl[39] br[39] bl[40] br[40] bl[41] br[41] bl[42] br[42] bl[43] br[43] bl[44] br[44] bl[45] br[45] bl[46] br[46] bl[47] br[47] bl[48] br[48] bl[49] br[49] bl[50] br[50] bl[51] br[51] bl[52] br[52] bl[53] br[53] bl[54] br[54] bl[55] br[55] bl[56] br[56] bl[57] br[57] bl[58] br[58] bl[59] br[59] bl[60] br[60] bl[61] br[61] bl[62] br[62] bl[63] br[63] bl[64] br[64] bl[65] br[65] bl[66] br[66] bl[67] br[67] bl[68] br[68] bl[69] br[69] bl[70] br[70] bl[71] br[71] bl[72] br[72] bl[73] br[73] bl[74] br[74] bl[75] br[75] bl[76] br[76] bl[77] br[77] bl[78] br[78] bl[79] br[79] bl[80] br[80] bl[81] br[81] bl[82] br[82] bl[83] br[83] bl[84] br[84] bl[85] br[85] bl[86] br[86] bl[87] br[87] bl[88] br[88] bl[89] br[89] bl[90] br[90] bl[91] br[91] bl[92] br[92] bl[93] br[93] bl[94] br[94] bl[95] br[95] bl[96] br[96] bl[97] br[97] bl[98] br[98] bl[99] br[99] bl[100] br[100] bl[101] br[101] bl[102] br[102] bl[103] br[103] bl[104] br[104] bl[105] br[105] bl[106] br[106] bl[107] br[107] bl[108] br[108] bl[109] br[109] bl[110] br[110] bl[111] br[111] bl[112] br[112] bl[113] br[113] bl[114] br[114] bl[115] br[115] bl[116] br[116] bl[117] br[117] bl[118] br[118] bl[119] br[119] bl[120] br[120] bl[121] br[121] bl[122] br[122] bl[123] br[123] bl[124] br[124] bl[125] br[125] bl[126] br[126] bl[127] br[127] wl[0] wl[1] wl[2] wl[3] wl[4] wl[5] wl[6] wl[7] wl[8] wl[9] wl[10] wl[11] wl[12] wl[13] wl[14] wl[15] wl[16] wl[17] wl[18] wl[19] wl[20] wl[21] wl[22] wl[23] wl[24] wl[25] wl[26] wl[27] wl[28] wl[29] wl[30] wl[31] wl[32] wl[33] wl[34] wl[35] wl[36] wl[37] wl[38] wl[39] wl[40] wl[41] wl[42] wl[43] wl[44] wl[45] wl[46] wl[47] wl[48] wl[49] wl[50] wl[51] wl[52] wl[53] wl[54] wl[55] wl[56] wl[57] wl[58] wl[59] wl[60] wl[61] wl[62] wl[63] vdd gnd
Xbit_r0_c0 bl[0] br[0] wl[0] vdd gnd cell_6t
Xbit_r1_c0 bl[0] br[0] wl[1] vdd gnd cell_6t
Xbit_r2_c0 bl[0] br[0] wl[2] vdd gnd cell_6t
Xbit_r3_c0 bl[0] br[0] wl[3] vdd gnd cell_6t
Xbit_r4_c0 bl[0] br[0] wl[4] vdd gnd cell_6t
Xbit_r5_c0 bl[0] br[0] wl[5] vdd gnd cell_6t
Xbit_r6_c0 bl[0] br[0] wl[6] vdd gnd cell_6t
Xbit_r7_c0 bl[0] br[0] wl[7] vdd gnd cell_6t
Xbit_r8_c0 bl[0] br[0] wl[8] vdd gnd cell_6t
Xbit_r9_c0 bl[0] br[0] wl[9] vdd gnd cell_6t
Xbit_r10_c0 bl[0] br[0] wl[10] vdd gnd cell_6t
Xbit_r11_c0 bl[0] br[0] wl[11] vdd gnd cell_6t
Xbit_r12_c0 bl[0] br[0] wl[12] vdd gnd cell_6t
Xbit_r13_c0 bl[0] br[0] wl[13] vdd gnd cell_6t
Xbit_r14_c0 bl[0] br[0] wl[14] vdd gnd cell_6t
Xbit_r15_c0 bl[0] br[0] wl[15] vdd gnd cell_6t
Xbit_r16_c0 bl[0] br[0] wl[16] vdd gnd cell_6t
Xbit_r17_c0 bl[0] br[0] wl[17] vdd gnd cell_6t
Xbit_r18_c0 bl[0] br[0] wl[18] vdd gnd cell_6t
Xbit_r19_c0 bl[0] br[0] wl[19] vdd gnd cell_6t
Xbit_r20_c0 bl[0] br[0] wl[20] vdd gnd cell_6t
Xbit_r21_c0 bl[0] br[0] wl[21] vdd gnd cell_6t
Xbit_r22_c0 bl[0] br[0] wl[22] vdd gnd cell_6t
Xbit_r23_c0 bl[0] br[0] wl[23] vdd gnd cell_6t
Xbit_r24_c0 bl[0] br[0] wl[24] vdd gnd cell_6t
Xbit_r25_c0 bl[0] br[0] wl[25] vdd gnd cell_6t
Xbit_r26_c0 bl[0] br[0] wl[26] vdd gnd cell_6t
Xbit_r27_c0 bl[0] br[0] wl[27] vdd gnd cell_6t
Xbit_r28_c0 bl[0] br[0] wl[28] vdd gnd cell_6t
Xbit_r29_c0 bl[0] br[0] wl[29] vdd gnd cell_6t
Xbit_r30_c0 bl[0] br[0] wl[30] vdd gnd cell_6t
Xbit_r31_c0 bl[0] br[0] wl[31] vdd gnd cell_6t
Xbit_r32_c0 bl[0] br[0] wl[32] vdd gnd cell_6t
Xbit_r33_c0 bl[0] br[0] wl[33] vdd gnd cell_6t
Xbit_r34_c0 bl[0] br[0] wl[34] vdd gnd cell_6t
Xbit_r35_c0 bl[0] br[0] wl[35] vdd gnd cell_6t
Xbit_r36_c0 bl[0] br[0] wl[36] vdd gnd cell_6t
Xbit_r37_c0 bl[0] br[0] wl[37] vdd gnd cell_6t
Xbit_r38_c0 bl[0] br[0] wl[38] vdd gnd cell_6t
Xbit_r39_c0 bl[0] br[0] wl[39] vdd gnd cell_6t
Xbit_r40_c0 bl[0] br[0] wl[40] vdd gnd cell_6t
Xbit_r41_c0 bl[0] br[0] wl[41] vdd gnd cell_6t
Xbit_r42_c0 bl[0] br[0] wl[42] vdd gnd cell_6t
Xbit_r43_c0 bl[0] br[0] wl[43] vdd gnd cell_6t
Xbit_r44_c0 bl[0] br[0] wl[44] vdd gnd cell_6t
Xbit_r45_c0 bl[0] br[0] wl[45] vdd gnd cell_6t
Xbit_r46_c0 bl[0] br[0] wl[46] vdd gnd cell_6t
Xbit_r47_c0 bl[0] br[0] wl[47] vdd gnd cell_6t
Xbit_r48_c0 bl[0] br[0] wl[48] vdd gnd cell_6t
Xbit_r49_c0 bl[0] br[0] wl[49] vdd gnd cell_6t
Xbit_r50_c0 bl[0] br[0] wl[50] vdd gnd cell_6t
Xbit_r51_c0 bl[0] br[0] wl[51] vdd gnd cell_6t
Xbit_r52_c0 bl[0] br[0] wl[52] vdd gnd cell_6t
Xbit_r53_c0 bl[0] br[0] wl[53] vdd gnd cell_6t
Xbit_r54_c0 bl[0] br[0] wl[54] vdd gnd cell_6t
Xbit_r55_c0 bl[0] br[0] wl[55] vdd gnd cell_6t
Xbit_r56_c0 bl[0] br[0] wl[56] vdd gnd cell_6t
Xbit_r57_c0 bl[0] br[0] wl[57] vdd gnd cell_6t
Xbit_r58_c0 bl[0] br[0] wl[58] vdd gnd cell_6t
Xbit_r59_c0 bl[0] br[0] wl[59] vdd gnd cell_6t
Xbit_r60_c0 bl[0] br[0] wl[60] vdd gnd cell_6t
Xbit_r61_c0 bl[0] br[0] wl[61] vdd gnd cell_6t
Xbit_r62_c0 bl[0] br[0] wl[62] vdd gnd cell_6t
Xbit_r63_c0 bl[0] br[0] wl[63] vdd gnd cell_6t
Xbit_r0_c1 bl[1] br[1] wl[0] vdd gnd cell_6t
Xbit_r1_c1 bl[1] br[1] wl[1] vdd gnd cell_6t
Xbit_r2_c1 bl[1] br[1] wl[2] vdd gnd cell_6t
Xbit_r3_c1 bl[1] br[1] wl[3] vdd gnd cell_6t
Xbit_r4_c1 bl[1] br[1] wl[4] vdd gnd cell_6t
Xbit_r5_c1 bl[1] br[1] wl[5] vdd gnd cell_6t
Xbit_r6_c1 bl[1] br[1] wl[6] vdd gnd cell_6t
Xbit_r7_c1 bl[1] br[1] wl[7] vdd gnd cell_6t
Xbit_r8_c1 bl[1] br[1] wl[8] vdd gnd cell_6t
Xbit_r9_c1 bl[1] br[1] wl[9] vdd gnd cell_6t
Xbit_r10_c1 bl[1] br[1] wl[10] vdd gnd cell_6t
Xbit_r11_c1 bl[1] br[1] wl[11] vdd gnd cell_6t
Xbit_r12_c1 bl[1] br[1] wl[12] vdd gnd cell_6t
Xbit_r13_c1 bl[1] br[1] wl[13] vdd gnd cell_6t
Xbit_r14_c1 bl[1] br[1] wl[14] vdd gnd cell_6t
Xbit_r15_c1 bl[1] br[1] wl[15] vdd gnd cell_6t
Xbit_r16_c1 bl[1] br[1] wl[16] vdd gnd cell_6t
Xbit_r17_c1 bl[1] br[1] wl[17] vdd gnd cell_6t
Xbit_r18_c1 bl[1] br[1] wl[18] vdd gnd cell_6t
Xbit_r19_c1 bl[1] br[1] wl[19] vdd gnd cell_6t
Xbit_r20_c1 bl[1] br[1] wl[20] vdd gnd cell_6t
Xbit_r21_c1 bl[1] br[1] wl[21] vdd gnd cell_6t
Xbit_r22_c1 bl[1] br[1] wl[22] vdd gnd cell_6t
Xbit_r23_c1 bl[1] br[1] wl[23] vdd gnd cell_6t
Xbit_r24_c1 bl[1] br[1] wl[24] vdd gnd cell_6t
Xbit_r25_c1 bl[1] br[1] wl[25] vdd gnd cell_6t
Xbit_r26_c1 bl[1] br[1] wl[26] vdd gnd cell_6t
Xbit_r27_c1 bl[1] br[1] wl[27] vdd gnd cell_6t
Xbit_r28_c1 bl[1] br[1] wl[28] vdd gnd cell_6t
Xbit_r29_c1 bl[1] br[1] wl[29] vdd gnd cell_6t
Xbit_r30_c1 bl[1] br[1] wl[30] vdd gnd cell_6t
Xbit_r31_c1 bl[1] br[1] wl[31] vdd gnd cell_6t
Xbit_r32_c1 bl[1] br[1] wl[32] vdd gnd cell_6t
Xbit_r33_c1 bl[1] br[1] wl[33] vdd gnd cell_6t
Xbit_r34_c1 bl[1] br[1] wl[34] vdd gnd cell_6t
Xbit_r35_c1 bl[1] br[1] wl[35] vdd gnd cell_6t
Xbit_r36_c1 bl[1] br[1] wl[36] vdd gnd cell_6t
Xbit_r37_c1 bl[1] br[1] wl[37] vdd gnd cell_6t
Xbit_r38_c1 bl[1] br[1] wl[38] vdd gnd cell_6t
Xbit_r39_c1 bl[1] br[1] wl[39] vdd gnd cell_6t
Xbit_r40_c1 bl[1] br[1] wl[40] vdd gnd cell_6t
Xbit_r41_c1 bl[1] br[1] wl[41] vdd gnd cell_6t
Xbit_r42_c1 bl[1] br[1] wl[42] vdd gnd cell_6t
Xbit_r43_c1 bl[1] br[1] wl[43] vdd gnd cell_6t
Xbit_r44_c1 bl[1] br[1] wl[44] vdd gnd cell_6t
Xbit_r45_c1 bl[1] br[1] wl[45] vdd gnd cell_6t
Xbit_r46_c1 bl[1] br[1] wl[46] vdd gnd cell_6t
Xbit_r47_c1 bl[1] br[1] wl[47] vdd gnd cell_6t
Xbit_r48_c1 bl[1] br[1] wl[48] vdd gnd cell_6t
Xbit_r49_c1 bl[1] br[1] wl[49] vdd gnd cell_6t
Xbit_r50_c1 bl[1] br[1] wl[50] vdd gnd cell_6t
Xbit_r51_c1 bl[1] br[1] wl[51] vdd gnd cell_6t
Xbit_r52_c1 bl[1] br[1] wl[52] vdd gnd cell_6t
Xbit_r53_c1 bl[1] br[1] wl[53] vdd gnd cell_6t
Xbit_r54_c1 bl[1] br[1] wl[54] vdd gnd cell_6t
Xbit_r55_c1 bl[1] br[1] wl[55] vdd gnd cell_6t
Xbit_r56_c1 bl[1] br[1] wl[56] vdd gnd cell_6t
Xbit_r57_c1 bl[1] br[1] wl[57] vdd gnd cell_6t
Xbit_r58_c1 bl[1] br[1] wl[58] vdd gnd cell_6t
Xbit_r59_c1 bl[1] br[1] wl[59] vdd gnd cell_6t
Xbit_r60_c1 bl[1] br[1] wl[60] vdd gnd cell_6t
Xbit_r61_c1 bl[1] br[1] wl[61] vdd gnd cell_6t
Xbit_r62_c1 bl[1] br[1] wl[62] vdd gnd cell_6t
Xbit_r63_c1 bl[1] br[1] wl[63] vdd gnd cell_6t
Xbit_r0_c2 bl[2] br[2] wl[0] vdd gnd cell_6t
Xbit_r1_c2 bl[2] br[2] wl[1] vdd gnd cell_6t
Xbit_r2_c2 bl[2] br[2] wl[2] vdd gnd cell_6t
Xbit_r3_c2 bl[2] br[2] wl[3] vdd gnd cell_6t
Xbit_r4_c2 bl[2] br[2] wl[4] vdd gnd cell_6t
Xbit_r5_c2 bl[2] br[2] wl[5] vdd gnd cell_6t
Xbit_r6_c2 bl[2] br[2] wl[6] vdd gnd cell_6t
Xbit_r7_c2 bl[2] br[2] wl[7] vdd gnd cell_6t
Xbit_r8_c2 bl[2] br[2] wl[8] vdd gnd cell_6t
Xbit_r9_c2 bl[2] br[2] wl[9] vdd gnd cell_6t
Xbit_r10_c2 bl[2] br[2] wl[10] vdd gnd cell_6t
Xbit_r11_c2 bl[2] br[2] wl[11] vdd gnd cell_6t
Xbit_r12_c2 bl[2] br[2] wl[12] vdd gnd cell_6t
Xbit_r13_c2 bl[2] br[2] wl[13] vdd gnd cell_6t
Xbit_r14_c2 bl[2] br[2] wl[14] vdd gnd cell_6t
Xbit_r15_c2 bl[2] br[2] wl[15] vdd gnd cell_6t
Xbit_r16_c2 bl[2] br[2] wl[16] vdd gnd cell_6t
Xbit_r17_c2 bl[2] br[2] wl[17] vdd gnd cell_6t
Xbit_r18_c2 bl[2] br[2] wl[18] vdd gnd cell_6t
Xbit_r19_c2 bl[2] br[2] wl[19] vdd gnd cell_6t
Xbit_r20_c2 bl[2] br[2] wl[20] vdd gnd cell_6t
Xbit_r21_c2 bl[2] br[2] wl[21] vdd gnd cell_6t
Xbit_r22_c2 bl[2] br[2] wl[22] vdd gnd cell_6t
Xbit_r23_c2 bl[2] br[2] wl[23] vdd gnd cell_6t
Xbit_r24_c2 bl[2] br[2] wl[24] vdd gnd cell_6t
Xbit_r25_c2 bl[2] br[2] wl[25] vdd gnd cell_6t
Xbit_r26_c2 bl[2] br[2] wl[26] vdd gnd cell_6t
Xbit_r27_c2 bl[2] br[2] wl[27] vdd gnd cell_6t
Xbit_r28_c2 bl[2] br[2] wl[28] vdd gnd cell_6t
Xbit_r29_c2 bl[2] br[2] wl[29] vdd gnd cell_6t
Xbit_r30_c2 bl[2] br[2] wl[30] vdd gnd cell_6t
Xbit_r31_c2 bl[2] br[2] wl[31] vdd gnd cell_6t
Xbit_r32_c2 bl[2] br[2] wl[32] vdd gnd cell_6t
Xbit_r33_c2 bl[2] br[2] wl[33] vdd gnd cell_6t
Xbit_r34_c2 bl[2] br[2] wl[34] vdd gnd cell_6t
Xbit_r35_c2 bl[2] br[2] wl[35] vdd gnd cell_6t
Xbit_r36_c2 bl[2] br[2] wl[36] vdd gnd cell_6t
Xbit_r37_c2 bl[2] br[2] wl[37] vdd gnd cell_6t
Xbit_r38_c2 bl[2] br[2] wl[38] vdd gnd cell_6t
Xbit_r39_c2 bl[2] br[2] wl[39] vdd gnd cell_6t
Xbit_r40_c2 bl[2] br[2] wl[40] vdd gnd cell_6t
Xbit_r41_c2 bl[2] br[2] wl[41] vdd gnd cell_6t
Xbit_r42_c2 bl[2] br[2] wl[42] vdd gnd cell_6t
Xbit_r43_c2 bl[2] br[2] wl[43] vdd gnd cell_6t
Xbit_r44_c2 bl[2] br[2] wl[44] vdd gnd cell_6t
Xbit_r45_c2 bl[2] br[2] wl[45] vdd gnd cell_6t
Xbit_r46_c2 bl[2] br[2] wl[46] vdd gnd cell_6t
Xbit_r47_c2 bl[2] br[2] wl[47] vdd gnd cell_6t
Xbit_r48_c2 bl[2] br[2] wl[48] vdd gnd cell_6t
Xbit_r49_c2 bl[2] br[2] wl[49] vdd gnd cell_6t
Xbit_r50_c2 bl[2] br[2] wl[50] vdd gnd cell_6t
Xbit_r51_c2 bl[2] br[2] wl[51] vdd gnd cell_6t
Xbit_r52_c2 bl[2] br[2] wl[52] vdd gnd cell_6t
Xbit_r53_c2 bl[2] br[2] wl[53] vdd gnd cell_6t
Xbit_r54_c2 bl[2] br[2] wl[54] vdd gnd cell_6t
Xbit_r55_c2 bl[2] br[2] wl[55] vdd gnd cell_6t
Xbit_r56_c2 bl[2] br[2] wl[56] vdd gnd cell_6t
Xbit_r57_c2 bl[2] br[2] wl[57] vdd gnd cell_6t
Xbit_r58_c2 bl[2] br[2] wl[58] vdd gnd cell_6t
Xbit_r59_c2 bl[2] br[2] wl[59] vdd gnd cell_6t
Xbit_r60_c2 bl[2] br[2] wl[60] vdd gnd cell_6t
Xbit_r61_c2 bl[2] br[2] wl[61] vdd gnd cell_6t
Xbit_r62_c2 bl[2] br[2] wl[62] vdd gnd cell_6t
Xbit_r63_c2 bl[2] br[2] wl[63] vdd gnd cell_6t
Xbit_r0_c3 bl[3] br[3] wl[0] vdd gnd cell_6t
Xbit_r1_c3 bl[3] br[3] wl[1] vdd gnd cell_6t
Xbit_r2_c3 bl[3] br[3] wl[2] vdd gnd cell_6t
Xbit_r3_c3 bl[3] br[3] wl[3] vdd gnd cell_6t
Xbit_r4_c3 bl[3] br[3] wl[4] vdd gnd cell_6t
Xbit_r5_c3 bl[3] br[3] wl[5] vdd gnd cell_6t
Xbit_r6_c3 bl[3] br[3] wl[6] vdd gnd cell_6t
Xbit_r7_c3 bl[3] br[3] wl[7] vdd gnd cell_6t
Xbit_r8_c3 bl[3] br[3] wl[8] vdd gnd cell_6t
Xbit_r9_c3 bl[3] br[3] wl[9] vdd gnd cell_6t
Xbit_r10_c3 bl[3] br[3] wl[10] vdd gnd cell_6t
Xbit_r11_c3 bl[3] br[3] wl[11] vdd gnd cell_6t
Xbit_r12_c3 bl[3] br[3] wl[12] vdd gnd cell_6t
Xbit_r13_c3 bl[3] br[3] wl[13] vdd gnd cell_6t
Xbit_r14_c3 bl[3] br[3] wl[14] vdd gnd cell_6t
Xbit_r15_c3 bl[3] br[3] wl[15] vdd gnd cell_6t
Xbit_r16_c3 bl[3] br[3] wl[16] vdd gnd cell_6t
Xbit_r17_c3 bl[3] br[3] wl[17] vdd gnd cell_6t
Xbit_r18_c3 bl[3] br[3] wl[18] vdd gnd cell_6t
Xbit_r19_c3 bl[3] br[3] wl[19] vdd gnd cell_6t
Xbit_r20_c3 bl[3] br[3] wl[20] vdd gnd cell_6t
Xbit_r21_c3 bl[3] br[3] wl[21] vdd gnd cell_6t
Xbit_r22_c3 bl[3] br[3] wl[22] vdd gnd cell_6t
Xbit_r23_c3 bl[3] br[3] wl[23] vdd gnd cell_6t
Xbit_r24_c3 bl[3] br[3] wl[24] vdd gnd cell_6t
Xbit_r25_c3 bl[3] br[3] wl[25] vdd gnd cell_6t
Xbit_r26_c3 bl[3] br[3] wl[26] vdd gnd cell_6t
Xbit_r27_c3 bl[3] br[3] wl[27] vdd gnd cell_6t
Xbit_r28_c3 bl[3] br[3] wl[28] vdd gnd cell_6t
Xbit_r29_c3 bl[3] br[3] wl[29] vdd gnd cell_6t
Xbit_r30_c3 bl[3] br[3] wl[30] vdd gnd cell_6t
Xbit_r31_c3 bl[3] br[3] wl[31] vdd gnd cell_6t
Xbit_r32_c3 bl[3] br[3] wl[32] vdd gnd cell_6t
Xbit_r33_c3 bl[3] br[3] wl[33] vdd gnd cell_6t
Xbit_r34_c3 bl[3] br[3] wl[34] vdd gnd cell_6t
Xbit_r35_c3 bl[3] br[3] wl[35] vdd gnd cell_6t
Xbit_r36_c3 bl[3] br[3] wl[36] vdd gnd cell_6t
Xbit_r37_c3 bl[3] br[3] wl[37] vdd gnd cell_6t
Xbit_r38_c3 bl[3] br[3] wl[38] vdd gnd cell_6t
Xbit_r39_c3 bl[3] br[3] wl[39] vdd gnd cell_6t
Xbit_r40_c3 bl[3] br[3] wl[40] vdd gnd cell_6t
Xbit_r41_c3 bl[3] br[3] wl[41] vdd gnd cell_6t
Xbit_r42_c3 bl[3] br[3] wl[42] vdd gnd cell_6t
Xbit_r43_c3 bl[3] br[3] wl[43] vdd gnd cell_6t
Xbit_r44_c3 bl[3] br[3] wl[44] vdd gnd cell_6t
Xbit_r45_c3 bl[3] br[3] wl[45] vdd gnd cell_6t
Xbit_r46_c3 bl[3] br[3] wl[46] vdd gnd cell_6t
Xbit_r47_c3 bl[3] br[3] wl[47] vdd gnd cell_6t
Xbit_r48_c3 bl[3] br[3] wl[48] vdd gnd cell_6t
Xbit_r49_c3 bl[3] br[3] wl[49] vdd gnd cell_6t
Xbit_r50_c3 bl[3] br[3] wl[50] vdd gnd cell_6t
Xbit_r51_c3 bl[3] br[3] wl[51] vdd gnd cell_6t
Xbit_r52_c3 bl[3] br[3] wl[52] vdd gnd cell_6t
Xbit_r53_c3 bl[3] br[3] wl[53] vdd gnd cell_6t
Xbit_r54_c3 bl[3] br[3] wl[54] vdd gnd cell_6t
Xbit_r55_c3 bl[3] br[3] wl[55] vdd gnd cell_6t
Xbit_r56_c3 bl[3] br[3] wl[56] vdd gnd cell_6t
Xbit_r57_c3 bl[3] br[3] wl[57] vdd gnd cell_6t
Xbit_r58_c3 bl[3] br[3] wl[58] vdd gnd cell_6t
Xbit_r59_c3 bl[3] br[3] wl[59] vdd gnd cell_6t
Xbit_r60_c3 bl[3] br[3] wl[60] vdd gnd cell_6t
Xbit_r61_c3 bl[3] br[3] wl[61] vdd gnd cell_6t
Xbit_r62_c3 bl[3] br[3] wl[62] vdd gnd cell_6t
Xbit_r63_c3 bl[3] br[3] wl[63] vdd gnd cell_6t
Xbit_r0_c4 bl[4] br[4] wl[0] vdd gnd cell_6t
Xbit_r1_c4 bl[4] br[4] wl[1] vdd gnd cell_6t
Xbit_r2_c4 bl[4] br[4] wl[2] vdd gnd cell_6t
Xbit_r3_c4 bl[4] br[4] wl[3] vdd gnd cell_6t
Xbit_r4_c4 bl[4] br[4] wl[4] vdd gnd cell_6t
Xbit_r5_c4 bl[4] br[4] wl[5] vdd gnd cell_6t
Xbit_r6_c4 bl[4] br[4] wl[6] vdd gnd cell_6t
Xbit_r7_c4 bl[4] br[4] wl[7] vdd gnd cell_6t
Xbit_r8_c4 bl[4] br[4] wl[8] vdd gnd cell_6t
Xbit_r9_c4 bl[4] br[4] wl[9] vdd gnd cell_6t
Xbit_r10_c4 bl[4] br[4] wl[10] vdd gnd cell_6t
Xbit_r11_c4 bl[4] br[4] wl[11] vdd gnd cell_6t
Xbit_r12_c4 bl[4] br[4] wl[12] vdd gnd cell_6t
Xbit_r13_c4 bl[4] br[4] wl[13] vdd gnd cell_6t
Xbit_r14_c4 bl[4] br[4] wl[14] vdd gnd cell_6t
Xbit_r15_c4 bl[4] br[4] wl[15] vdd gnd cell_6t
Xbit_r16_c4 bl[4] br[4] wl[16] vdd gnd cell_6t
Xbit_r17_c4 bl[4] br[4] wl[17] vdd gnd cell_6t
Xbit_r18_c4 bl[4] br[4] wl[18] vdd gnd cell_6t
Xbit_r19_c4 bl[4] br[4] wl[19] vdd gnd cell_6t
Xbit_r20_c4 bl[4] br[4] wl[20] vdd gnd cell_6t
Xbit_r21_c4 bl[4] br[4] wl[21] vdd gnd cell_6t
Xbit_r22_c4 bl[4] br[4] wl[22] vdd gnd cell_6t
Xbit_r23_c4 bl[4] br[4] wl[23] vdd gnd cell_6t
Xbit_r24_c4 bl[4] br[4] wl[24] vdd gnd cell_6t
Xbit_r25_c4 bl[4] br[4] wl[25] vdd gnd cell_6t
Xbit_r26_c4 bl[4] br[4] wl[26] vdd gnd cell_6t
Xbit_r27_c4 bl[4] br[4] wl[27] vdd gnd cell_6t
Xbit_r28_c4 bl[4] br[4] wl[28] vdd gnd cell_6t
Xbit_r29_c4 bl[4] br[4] wl[29] vdd gnd cell_6t
Xbit_r30_c4 bl[4] br[4] wl[30] vdd gnd cell_6t
Xbit_r31_c4 bl[4] br[4] wl[31] vdd gnd cell_6t
Xbit_r32_c4 bl[4] br[4] wl[32] vdd gnd cell_6t
Xbit_r33_c4 bl[4] br[4] wl[33] vdd gnd cell_6t
Xbit_r34_c4 bl[4] br[4] wl[34] vdd gnd cell_6t
Xbit_r35_c4 bl[4] br[4] wl[35] vdd gnd cell_6t
Xbit_r36_c4 bl[4] br[4] wl[36] vdd gnd cell_6t
Xbit_r37_c4 bl[4] br[4] wl[37] vdd gnd cell_6t
Xbit_r38_c4 bl[4] br[4] wl[38] vdd gnd cell_6t
Xbit_r39_c4 bl[4] br[4] wl[39] vdd gnd cell_6t
Xbit_r40_c4 bl[4] br[4] wl[40] vdd gnd cell_6t
Xbit_r41_c4 bl[4] br[4] wl[41] vdd gnd cell_6t
Xbit_r42_c4 bl[4] br[4] wl[42] vdd gnd cell_6t
Xbit_r43_c4 bl[4] br[4] wl[43] vdd gnd cell_6t
Xbit_r44_c4 bl[4] br[4] wl[44] vdd gnd cell_6t
Xbit_r45_c4 bl[4] br[4] wl[45] vdd gnd cell_6t
Xbit_r46_c4 bl[4] br[4] wl[46] vdd gnd cell_6t
Xbit_r47_c4 bl[4] br[4] wl[47] vdd gnd cell_6t
Xbit_r48_c4 bl[4] br[4] wl[48] vdd gnd cell_6t
Xbit_r49_c4 bl[4] br[4] wl[49] vdd gnd cell_6t
Xbit_r50_c4 bl[4] br[4] wl[50] vdd gnd cell_6t
Xbit_r51_c4 bl[4] br[4] wl[51] vdd gnd cell_6t
Xbit_r52_c4 bl[4] br[4] wl[52] vdd gnd cell_6t
Xbit_r53_c4 bl[4] br[4] wl[53] vdd gnd cell_6t
Xbit_r54_c4 bl[4] br[4] wl[54] vdd gnd cell_6t
Xbit_r55_c4 bl[4] br[4] wl[55] vdd gnd cell_6t
Xbit_r56_c4 bl[4] br[4] wl[56] vdd gnd cell_6t
Xbit_r57_c4 bl[4] br[4] wl[57] vdd gnd cell_6t
Xbit_r58_c4 bl[4] br[4] wl[58] vdd gnd cell_6t
Xbit_r59_c4 bl[4] br[4] wl[59] vdd gnd cell_6t
Xbit_r60_c4 bl[4] br[4] wl[60] vdd gnd cell_6t
Xbit_r61_c4 bl[4] br[4] wl[61] vdd gnd cell_6t
Xbit_r62_c4 bl[4] br[4] wl[62] vdd gnd cell_6t
Xbit_r63_c4 bl[4] br[4] wl[63] vdd gnd cell_6t
Xbit_r0_c5 bl[5] br[5] wl[0] vdd gnd cell_6t
Xbit_r1_c5 bl[5] br[5] wl[1] vdd gnd cell_6t
Xbit_r2_c5 bl[5] br[5] wl[2] vdd gnd cell_6t
Xbit_r3_c5 bl[5] br[5] wl[3] vdd gnd cell_6t
Xbit_r4_c5 bl[5] br[5] wl[4] vdd gnd cell_6t
Xbit_r5_c5 bl[5] br[5] wl[5] vdd gnd cell_6t
Xbit_r6_c5 bl[5] br[5] wl[6] vdd gnd cell_6t
Xbit_r7_c5 bl[5] br[5] wl[7] vdd gnd cell_6t
Xbit_r8_c5 bl[5] br[5] wl[8] vdd gnd cell_6t
Xbit_r9_c5 bl[5] br[5] wl[9] vdd gnd cell_6t
Xbit_r10_c5 bl[5] br[5] wl[10] vdd gnd cell_6t
Xbit_r11_c5 bl[5] br[5] wl[11] vdd gnd cell_6t
Xbit_r12_c5 bl[5] br[5] wl[12] vdd gnd cell_6t
Xbit_r13_c5 bl[5] br[5] wl[13] vdd gnd cell_6t
Xbit_r14_c5 bl[5] br[5] wl[14] vdd gnd cell_6t
Xbit_r15_c5 bl[5] br[5] wl[15] vdd gnd cell_6t
Xbit_r16_c5 bl[5] br[5] wl[16] vdd gnd cell_6t
Xbit_r17_c5 bl[5] br[5] wl[17] vdd gnd cell_6t
Xbit_r18_c5 bl[5] br[5] wl[18] vdd gnd cell_6t
Xbit_r19_c5 bl[5] br[5] wl[19] vdd gnd cell_6t
Xbit_r20_c5 bl[5] br[5] wl[20] vdd gnd cell_6t
Xbit_r21_c5 bl[5] br[5] wl[21] vdd gnd cell_6t
Xbit_r22_c5 bl[5] br[5] wl[22] vdd gnd cell_6t
Xbit_r23_c5 bl[5] br[5] wl[23] vdd gnd cell_6t
Xbit_r24_c5 bl[5] br[5] wl[24] vdd gnd cell_6t
Xbit_r25_c5 bl[5] br[5] wl[25] vdd gnd cell_6t
Xbit_r26_c5 bl[5] br[5] wl[26] vdd gnd cell_6t
Xbit_r27_c5 bl[5] br[5] wl[27] vdd gnd cell_6t
Xbit_r28_c5 bl[5] br[5] wl[28] vdd gnd cell_6t
Xbit_r29_c5 bl[5] br[5] wl[29] vdd gnd cell_6t
Xbit_r30_c5 bl[5] br[5] wl[30] vdd gnd cell_6t
Xbit_r31_c5 bl[5] br[5] wl[31] vdd gnd cell_6t
Xbit_r32_c5 bl[5] br[5] wl[32] vdd gnd cell_6t
Xbit_r33_c5 bl[5] br[5] wl[33] vdd gnd cell_6t
Xbit_r34_c5 bl[5] br[5] wl[34] vdd gnd cell_6t
Xbit_r35_c5 bl[5] br[5] wl[35] vdd gnd cell_6t
Xbit_r36_c5 bl[5] br[5] wl[36] vdd gnd cell_6t
Xbit_r37_c5 bl[5] br[5] wl[37] vdd gnd cell_6t
Xbit_r38_c5 bl[5] br[5] wl[38] vdd gnd cell_6t
Xbit_r39_c5 bl[5] br[5] wl[39] vdd gnd cell_6t
Xbit_r40_c5 bl[5] br[5] wl[40] vdd gnd cell_6t
Xbit_r41_c5 bl[5] br[5] wl[41] vdd gnd cell_6t
Xbit_r42_c5 bl[5] br[5] wl[42] vdd gnd cell_6t
Xbit_r43_c5 bl[5] br[5] wl[43] vdd gnd cell_6t
Xbit_r44_c5 bl[5] br[5] wl[44] vdd gnd cell_6t
Xbit_r45_c5 bl[5] br[5] wl[45] vdd gnd cell_6t
Xbit_r46_c5 bl[5] br[5] wl[46] vdd gnd cell_6t
Xbit_r47_c5 bl[5] br[5] wl[47] vdd gnd cell_6t
Xbit_r48_c5 bl[5] br[5] wl[48] vdd gnd cell_6t
Xbit_r49_c5 bl[5] br[5] wl[49] vdd gnd cell_6t
Xbit_r50_c5 bl[5] br[5] wl[50] vdd gnd cell_6t
Xbit_r51_c5 bl[5] br[5] wl[51] vdd gnd cell_6t
Xbit_r52_c5 bl[5] br[5] wl[52] vdd gnd cell_6t
Xbit_r53_c5 bl[5] br[5] wl[53] vdd gnd cell_6t
Xbit_r54_c5 bl[5] br[5] wl[54] vdd gnd cell_6t
Xbit_r55_c5 bl[5] br[5] wl[55] vdd gnd cell_6t
Xbit_r56_c5 bl[5] br[5] wl[56] vdd gnd cell_6t
Xbit_r57_c5 bl[5] br[5] wl[57] vdd gnd cell_6t
Xbit_r58_c5 bl[5] br[5] wl[58] vdd gnd cell_6t
Xbit_r59_c5 bl[5] br[5] wl[59] vdd gnd cell_6t
Xbit_r60_c5 bl[5] br[5] wl[60] vdd gnd cell_6t
Xbit_r61_c5 bl[5] br[5] wl[61] vdd gnd cell_6t
Xbit_r62_c5 bl[5] br[5] wl[62] vdd gnd cell_6t
Xbit_r63_c5 bl[5] br[5] wl[63] vdd gnd cell_6t
Xbit_r0_c6 bl[6] br[6] wl[0] vdd gnd cell_6t
Xbit_r1_c6 bl[6] br[6] wl[1] vdd gnd cell_6t
Xbit_r2_c6 bl[6] br[6] wl[2] vdd gnd cell_6t
Xbit_r3_c6 bl[6] br[6] wl[3] vdd gnd cell_6t
Xbit_r4_c6 bl[6] br[6] wl[4] vdd gnd cell_6t
Xbit_r5_c6 bl[6] br[6] wl[5] vdd gnd cell_6t
Xbit_r6_c6 bl[6] br[6] wl[6] vdd gnd cell_6t
Xbit_r7_c6 bl[6] br[6] wl[7] vdd gnd cell_6t
Xbit_r8_c6 bl[6] br[6] wl[8] vdd gnd cell_6t
Xbit_r9_c6 bl[6] br[6] wl[9] vdd gnd cell_6t
Xbit_r10_c6 bl[6] br[6] wl[10] vdd gnd cell_6t
Xbit_r11_c6 bl[6] br[6] wl[11] vdd gnd cell_6t
Xbit_r12_c6 bl[6] br[6] wl[12] vdd gnd cell_6t
Xbit_r13_c6 bl[6] br[6] wl[13] vdd gnd cell_6t
Xbit_r14_c6 bl[6] br[6] wl[14] vdd gnd cell_6t
Xbit_r15_c6 bl[6] br[6] wl[15] vdd gnd cell_6t
Xbit_r16_c6 bl[6] br[6] wl[16] vdd gnd cell_6t
Xbit_r17_c6 bl[6] br[6] wl[17] vdd gnd cell_6t
Xbit_r18_c6 bl[6] br[6] wl[18] vdd gnd cell_6t
Xbit_r19_c6 bl[6] br[6] wl[19] vdd gnd cell_6t
Xbit_r20_c6 bl[6] br[6] wl[20] vdd gnd cell_6t
Xbit_r21_c6 bl[6] br[6] wl[21] vdd gnd cell_6t
Xbit_r22_c6 bl[6] br[6] wl[22] vdd gnd cell_6t
Xbit_r23_c6 bl[6] br[6] wl[23] vdd gnd cell_6t
Xbit_r24_c6 bl[6] br[6] wl[24] vdd gnd cell_6t
Xbit_r25_c6 bl[6] br[6] wl[25] vdd gnd cell_6t
Xbit_r26_c6 bl[6] br[6] wl[26] vdd gnd cell_6t
Xbit_r27_c6 bl[6] br[6] wl[27] vdd gnd cell_6t
Xbit_r28_c6 bl[6] br[6] wl[28] vdd gnd cell_6t
Xbit_r29_c6 bl[6] br[6] wl[29] vdd gnd cell_6t
Xbit_r30_c6 bl[6] br[6] wl[30] vdd gnd cell_6t
Xbit_r31_c6 bl[6] br[6] wl[31] vdd gnd cell_6t
Xbit_r32_c6 bl[6] br[6] wl[32] vdd gnd cell_6t
Xbit_r33_c6 bl[6] br[6] wl[33] vdd gnd cell_6t
Xbit_r34_c6 bl[6] br[6] wl[34] vdd gnd cell_6t
Xbit_r35_c6 bl[6] br[6] wl[35] vdd gnd cell_6t
Xbit_r36_c6 bl[6] br[6] wl[36] vdd gnd cell_6t