**************************************************
* OpenRAM generated memory.
* Words: 128
* Data bits: 8
* Banks: 1
* Column mux: 4:1
**************************************************
*********************** "dff" ******************************
* Positive edge-triggered FF
.SUBCKT dff D Q clk vdd gnd

* SPICE3 file created from dff.ext - technology: scmos

M1000 vdd clk a_24_24# vdd p w=8u l=0.4u
M1001 a_84_296# D vdd vdd p w=4u l=0.4u
M1002 a_104_24# clk a_84_296# vdd p w=4u l=0.4u
M1003 a_140_296# a_24_24# a_104_24# vdd p w=4u l=0.4u
M1004 vdd a_152_16# a_140_296# vdd p w=4u l=0.4u
M1005 a_152_16# a_104_24# vdd vdd p w=4u l=0.4u
M1006 a_260_296# a_152_16# vdd vdd p w=4u l=0.4u
M1007 a_280_24# a_24_24# a_260_296# vdd p w=4u l=0.4u
M1008 a_320_336# clk a_280_24# vdd p w=2u l=0.4u
M1009 vdd Q a_320_336# vdd p w=2u l=0.4u
M1010 gnd clk a_24_24# gnd n w=4u l=0.4u
M1011 Q a_280_24# vdd vdd p w=8u l=0.4u
M1012 a_84_24# D gnd gnd n w=2u l=0.4u
M1013 a_104_24# a_24_24# a_84_24# gnd n w=2u l=0.4u
M1014 a_140_24# clk a_104_24# gnd n w=2u l=0.4u
M1015 gnd a_152_16# a_140_24# gnd n w=2u l=0.4u
M1016 a_152_16# a_104_24# gnd gnd n w=2u l=0.4u
M1017 a_260_24# a_152_16# gnd gnd n w=2u l=0.4u
M1018 a_280_24# clk a_260_24# gnd n w=2u l=0.4u
M1019 a_320_24# a_24_24# a_280_24# gnd n w=2u l=0.4u
M1020 gnd Q a_320_24# gnd n w=2u l=0.4u
M1021 Q a_280_24# gnd gnd n w=4u l=0.4u

.ENDS

.SUBCKT row_addr_dff din_0 din_1 din_2 din_3 din_4 dout_0 dout_1 dout_2 dout_3 dout_4 clk vdd gnd
* INPUT : din_0 
* INPUT : din_1 
* INPUT : din_2 
* INPUT : din_3 
* INPUT : din_4 
* OUTPUT: dout_0 
* OUTPUT: dout_1 
* OUTPUT: dout_2 
* OUTPUT: dout_3 
* OUTPUT: dout_4 
* INPUT : clk 
* POWER : vdd 
* GROUND: gnd 
* rows: 5 cols: 1
Xdff_r0_c0 din_0 dout_0 clk vdd gnd dff
Xdff_r1_c0 din_1 dout_1 clk vdd gnd dff
Xdff_r2_c0 din_2 dout_2 clk vdd gnd dff
Xdff_r3_c0 din_3 dout_3 clk vdd gnd dff
Xdff_r4_c0 din_4 dout_4 clk vdd gnd dff
.ENDS row_addr_dff

.SUBCKT col_addr_dff din_0 din_1 dout_0 dout_1 clk vdd gnd
* INPUT : din_0 
* INPUT : din_1 
* OUTPUT: dout_0 
* OUTPUT: dout_1 
* INPUT : clk 
* POWER : vdd 
* GROUND: gnd 
* rows: 1 cols: 2
Xdff_r0_c0 din_0 dout_0 clk vdd gnd dff
Xdff_r0_c1 din_1 dout_1 clk vdd gnd dff
.ENDS col_addr_dff

.SUBCKT data_dff din_0 din_1 din_2 din_3 din_4 din_5 din_6 din_7 dout_0 dout_1 dout_2 dout_3 dout_4 dout_5 dout_6 dout_7 clk vdd gnd
* INPUT : din_0 
* INPUT : din_1 
* INPUT : din_2 
* INPUT : din_3 
* INPUT : din_4 
* INPUT : din_5 
* INPUT : din_6 
* INPUT : din_7 
* OUTPUT: dout_0 
* OUTPUT: dout_1 
* OUTPUT: dout_2 
* OUTPUT: dout_3 
* OUTPUT: dout_4 
* OUTPUT: dout_5 
* OUTPUT: dout_6 
* OUTPUT: dout_7 
* INPUT : clk 
* POWER : vdd 
* GROUND: gnd 
* rows: 1 cols: 8
Xdff_r0_c0 din_0 dout_0 clk vdd gnd dff
Xdff_r0_c1 din_1 dout_1 clk vdd gnd dff
Xdff_r0_c2 din_2 dout_2 clk vdd gnd dff
Xdff_r0_c3 din_3 dout_3 clk vdd gnd dff
Xdff_r0_c4 din_4 dout_4 clk vdd gnd dff
Xdff_r0_c5 din_5 dout_5 clk vdd gnd dff
Xdff_r0_c6 din_6 dout_6 clk vdd gnd dff
Xdff_r0_c7 din_7 dout_7 clk vdd gnd dff
.ENDS data_dff

* ptx M{0} {1} p m=1 w=1.6u l=0.4u pd=4.00u ps=4.00u as=1.60p ad=1.60p

.SUBCKT precharge_0 bl br en_bar vdd
* OUTPUT: bl 
* OUTPUT: br 
* INPUT : en_bar 
* POWER : vdd 
Mlower_pmos bl en_bar br vdd p m=1 w=1.6u l=0.4u pd=4.00u ps=4.00u as=1.60p ad=1.60p
Mupper_pmos1 bl en_bar vdd vdd p m=1 w=1.6u l=0.4u pd=4.00u ps=4.00u as=1.60p ad=1.60p
Mupper_pmos2 br en_bar vdd vdd p m=1 w=1.6u l=0.4u pd=4.00u ps=4.00u as=1.60p ad=1.60p
.ENDS precharge_0

.SUBCKT precharge_array bl_0 br_0 bl_1 br_1 bl_2 br_2 bl_3 br_3 bl_4 br_4 bl_5 br_5 bl_6 br_6 bl_7 br_7 bl_8 br_8 bl_9 br_9 bl_10 br_10 bl_11 br_11 bl_12 br_12 bl_13 br_13 bl_14 br_14 bl_15 br_15 bl_16 br_16 bl_17 br_17 bl_18 br_18 bl_19 br_19 bl_20 br_20 bl_21 br_21 bl_22 br_22 bl_23 br_23 bl_24 br_24 bl_25 br_25 bl_26 br_26 bl_27 br_27 bl_28 br_28 bl_29 br_29 bl_30 br_30 bl_31 br_31 bl_32 br_32 en_bar vdd
* OUTPUT: bl_0 
* OUTPUT: br_0 
* OUTPUT: bl_1 
* OUTPUT: br_1 
* OUTPUT: bl_2 
* OUTPUT: br_2 
* OUTPUT: bl_3 
* OUTPUT: br_3 
* OUTPUT: bl_4 
* OUTPUT: br_4 
* OUTPUT: bl_5 
* OUTPUT: br_5 
* OUTPUT: bl_6 
* OUTPUT: br_6 
* OUTPUT: bl_7 
* OUTPUT: br_7 
* OUTPUT: bl_8 
* OUTPUT: br_8 
* OUTPUT: bl_9 
* OUTPUT: br_9 
* OUTPUT: bl_10 
* OUTPUT: br_10 
* OUTPUT: bl_11 
* OUTPUT: br_11 
* OUTPUT: bl_12 
* OUTPUT: br_12 
* OUTPUT: bl_13 
* OUTPUT: br_13 
* OUTPUT: bl_14 
* OUTPUT: br_14 
* OUTPUT: bl_15 
* OUTPUT: br_15 
* OUTPUT: bl_16 
* OUTPUT: br_16 
* OUTPUT: bl_17 
* OUTPUT: br_17 
* OUTPUT: bl_18 
* OUTPUT: br_18 
* OUTPUT: bl_19 
* OUTPUT: br_19 
* OUTPUT: bl_20 
* OUTPUT: br_20 
* OUTPUT: bl_21 
* OUTPUT: br_21 
* OUTPUT: bl_22 
* OUTPUT: br_22 
* OUTPUT: bl_23 
* OUTPUT: br_23 
* OUTPUT: bl_24 
* OUTPUT: br_24 
* OUTPUT: bl_25 
* OUTPUT: br_25 
* OUTPUT: bl_26 
* OUTPUT: br_26 
* OUTPUT: bl_27 
* OUTPUT: br_27 
* OUTPUT: bl_28 
* OUTPUT: br_28 
* OUTPUT: bl_29 
* OUTPUT: br_29 
* OUTPUT: bl_30 
* OUTPUT: br_30 
* OUTPUT: bl_31 
* OUTPUT: br_31 
* OUTPUT: bl_32 
* OUTPUT: br_32 
* INPUT : en_bar 
* POWER : vdd 
* cols: 33 size: 1 bl: bl br: br
Xpre_column_0 bl_0 br_0 en_bar vdd precharge_0
Xpre_column_1 bl_1 br_1 en_bar vdd precharge_0
Xpre_column_2 bl_2 br_2 en_bar vdd precharge_0
Xpre_column_3 bl_3 br_3 en_bar vdd precharge_0
Xpre_column_4 bl_4 br_4 en_bar vdd precharge_0
Xpre_column_5 bl_5 br_5 en_bar vdd precharge_0
Xpre_column_6 bl_6 br_6 en_bar vdd precharge_0
Xpre_column_7 bl_7 br_7 en_bar vdd precharge_0
Xpre_column_8 bl_8 br_8 en_bar vdd precharge_0
Xpre_column_9 bl_9 br_9 en_bar vdd precharge_0
Xpre_column_10 bl_10 br_10 en_bar vdd precharge_0
Xpre_column_11 bl_11 br_11 en_bar vdd precharge_0
Xpre_column_12 bl_12 br_12 en_bar vdd precharge_0
Xpre_column_13 bl_13 br_13 en_bar vdd precharge_0
Xpre_column_14 bl_14 br_14 en_bar vdd precharge_0
Xpre_column_15 bl_15 br_15 en_bar vdd precharge_0
Xpre_column_16 bl_16 br_16 en_bar vdd precharge_0
Xpre_column_17 bl_17 br_17 en_bar vdd precharge_0
Xpre_column_18 bl_18 br_18 en_bar vdd precharge_0
Xpre_column_19 bl_19 br_19 en_bar vdd precharge_0
Xpre_column_20 bl_20 br_20 en_bar vdd precharge_0
Xpre_column_21 bl_21 br_21 en_bar vdd precharge_0
Xpre_column_22 bl_22 br_22 en_bar vdd precharge_0
Xpre_column_23 bl_23 br_23 en_bar vdd precharge_0
Xpre_column_24 bl_24 br_24 en_bar vdd precharge_0
Xpre_column_25 bl_25 br_25 en_bar vdd precharge_0
Xpre_column_26 bl_26 br_26 en_bar vdd precharge_0
Xpre_column_27 bl_27 br_27 en_bar vdd precharge_0
Xpre_column_28 bl_28 br_28 en_bar vdd precharge_0
Xpre_column_29 bl_29 br_29 en_bar vdd precharge_0
Xpre_column_30 bl_30 br_30 en_bar vdd precharge_0
Xpre_column_31 bl_31 br_31 en_bar vdd precharge_0
Xpre_column_32 bl_32 br_32 en_bar vdd precharge_0
.ENDS precharge_array
*********************** "sense_amp" ******************************

.SUBCKT sense_amp bl br dout en vdd gnd

* SPICE3 file created from sense_amp.ext - technology: scmos

M1000 gnd en a_56_432# gnd n w=1.8u l=0.4u
M1001 a_56_432# a_48_304# dout gnd n w=1.8u l=0.4u
M1002 a_48_304# dout a_56_432# gnd n w=1.8u l=0.4u
M1003 vdd a_48_304# dout vdd p w=3.6u l=0.4u
M1004 a_48_304# dout vdd vdd p w=3.6u l=0.4u
M1005 bl en dout vdd p w=4.8u l=0.4u
M1006 a_48_304# en br vdd p w=4.8u l=0.4u

.ENDS

.SUBCKT sense_amp_array data_0 bl_0 br_0 data_1 bl_1 br_1 data_2 bl_2 br_2 data_3 bl_3 br_3 data_4 bl_4 br_4 data_5 bl_5 br_5 data_6 bl_6 br_6 data_7 bl_7 br_7 en vdd gnd
* OUTPUT: data_0 
* INPUT : bl_0 
* INPUT : br_0 
* OUTPUT: data_1 
* INPUT : bl_1 
* INPUT : br_1 
* OUTPUT: data_2 
* INPUT : bl_2 
* INPUT : br_2 
* OUTPUT: data_3 
* INPUT : bl_3 
* INPUT : br_3 
* OUTPUT: data_4 
* INPUT : bl_4 
* INPUT : br_4 
* OUTPUT: data_5 
* INPUT : bl_5 
* INPUT : br_5 
* OUTPUT: data_6 
* INPUT : bl_6 
* INPUT : br_6 
* OUTPUT: data_7 
* INPUT : bl_7 
* INPUT : br_7 
* INPUT : en 
* POWER : vdd 
* GROUND: gnd 
* words_per_row: 4
Xsa_d0 bl_0 br_0 data_0 en vdd gnd sense_amp
Xsa_d1 bl_1 br_1 data_1 en vdd gnd sense_amp
Xsa_d2 bl_2 br_2 data_2 en vdd gnd sense_amp
Xsa_d3 bl_3 br_3 data_3 en vdd gnd sense_amp
Xsa_d4 bl_4 br_4 data_4 en vdd gnd sense_amp
Xsa_d5 bl_5 br_5 data_5 en vdd gnd sense_amp
Xsa_d6 bl_6 br_6 data_6 en vdd gnd sense_amp
Xsa_d7 bl_7 br_7 data_7 en vdd gnd sense_amp
.ENDS sense_amp_array

* ptx M{0} {1} n m=1 w=6.4u l=0.4u pd=13.60u ps=13.60u as=6.40p ad=6.40p

.SUBCKT single_level_column_mux bl br bl_out br_out sel gnd
* INOUT : bl 
* INOUT : br 
* INOUT : bl_out 
* INOUT : br_out 
* INOUT : sel 
* INOUT : gnd 
Mmux_tx1 bl sel bl_out gnd n m=1 w=6.4u l=0.4u pd=13.60u ps=13.60u as=6.40p ad=6.40p
Mmux_tx2 br sel br_out gnd n m=1 w=6.4u l=0.4u pd=13.60u ps=13.60u as=6.40p ad=6.40p
.ENDS single_level_column_mux

.SUBCKT single_level_column_mux_array bl_0 br_0 bl_1 br_1 bl_2 br_2 bl_3 br_3 bl_4 br_4 bl_5 br_5 bl_6 br_6 bl_7 br_7 bl_8 br_8 bl_9 br_9 bl_10 br_10 bl_11 br_11 bl_12 br_12 bl_13 br_13 bl_14 br_14 bl_15 br_15 bl_16 br_16 bl_17 br_17 bl_18 br_18 bl_19 br_19 bl_20 br_20 bl_21 br_21 bl_22 br_22 bl_23 br_23 bl_24 br_24 bl_25 br_25 bl_26 br_26 bl_27 br_27 bl_28 br_28 bl_29 br_29 bl_30 br_30 bl_31 br_31 sel_0 sel_1 sel_2 sel_3 bl_out_0 br_out_0 bl_out_1 br_out_1 bl_out_2 br_out_2 bl_out_3 br_out_3 bl_out_4 br_out_4 bl_out_5 br_out_5 bl_out_6 br_out_6 bl_out_7 br_out_7 gnd
* INOUT : bl_0 
* INOUT : br_0 
* INOUT : bl_1 
* INOUT : br_1 
* INOUT : bl_2 
* INOUT : br_2 
* INOUT : bl_3 
* INOUT : br_3 
* INOUT : bl_4 
* INOUT : br_4 
* INOUT : bl_5 
* INOUT : br_5 
* INOUT : bl_6 
* INOUT : br_6 
* INOUT : bl_7 
* INOUT : br_7 
* INOUT : bl_8 
* INOUT : br_8 
* INOUT : bl_9 
* INOUT : br_9 
* INOUT : bl_10 
* INOUT : br_10 
* INOUT : bl_11 
* INOUT : br_11 
* INOUT : bl_12 
* INOUT : br_12 
* INOUT : bl_13 
* INOUT : br_13 
* INOUT : bl_14 
* INOUT : br_14 
* INOUT : bl_15 
* INOUT : br_15 
* INOUT : bl_16 
* INOUT : br_16 
* INOUT : bl_17 
* INOUT : br_17 
* INOUT : bl_18 
* INOUT : br_18 
* INOUT : bl_19 
* INOUT : br_19 
* INOUT : bl_20 
* INOUT : br_20 
* INOUT : bl_21 
* INOUT : br_21 
* INOUT : bl_22 
* INOUT : br_22 
* INOUT : bl_23 
* INOUT : br_23 
* INOUT : bl_24 
* INOUT : br_24 
* INOUT : bl_25 
* INOUT : br_25 
* INOUT : bl_26 
* INOUT : br_26 
* INOUT : bl_27 
* INOUT : br_27 
* INOUT : bl_28 
* INOUT : br_28 
* INOUT : bl_29 
* INOUT : br_29 
* INOUT : bl_30 
* INOUT : br_30 
* INOUT : bl_31 
* INOUT : br_31 
* INOUT : sel_0 
* INOUT : sel_1 
* INOUT : sel_2 
* INOUT : sel_3 
* INOUT : bl_out_0 
* INOUT : br_out_0 
* INOUT : bl_out_1 
* INOUT : br_out_1 
* INOUT : bl_out_2 
* INOUT : br_out_2 
* INOUT : bl_out_3 
* INOUT : br_out_3 
* INOUT : bl_out_4 
* INOUT : br_out_4 
* INOUT : bl_out_5 
* INOUT : br_out_5 
* INOUT : bl_out_6 
* INOUT : br_out_6 
* INOUT : bl_out_7 
* INOUT : br_out_7 
* INOUT : gnd 
* cols: 32 word_size: 8 bl: bl br: br
XXMUX0 bl_0 br_0 bl_out_0 br_out_0 sel_0 gnd single_level_column_mux
XXMUX1 bl_1 br_1 bl_out_0 br_out_0 sel_1 gnd single_level_column_mux
XXMUX2 bl_2 br_2 bl_out_0 br_out_0 sel_2 gnd single_level_column_mux
XXMUX3 bl_3 br_3 bl_out_0 br_out_0 sel_3 gnd single_level_column_mux
XXMUX4 bl_4 br_4 bl_out_1 br_out_1 sel_0 gnd single_level_column_mux
XXMUX5 bl_5 br_5 bl_out_1 br_out_1 sel_1 gnd single_level_column_mux
XXMUX6 bl_6 br_6 bl_out_1 br_out_1 sel_2 gnd single_level_column_mux
XXMUX7 bl_7 br_7 bl_out_1 br_out_1 sel_3 gnd single_level_column_mux
XXMUX8 bl_8 br_8 bl_out_2 br_out_2 sel_0 gnd single_level_column_mux
XXMUX9 bl_9 br_9 bl_out_2 br_out_2 sel_1 gnd single_level_column_mux
XXMUX10 bl_10 br_10 bl_out_2 br_out_2 sel_2 gnd single_level_column_mux
XXMUX11 bl_11 br_11 bl_out_2 br_out_2 sel_3 gnd single_level_column_mux
XXMUX12 bl_12 br_12 bl_out_3 br_out_3 sel_0 gnd single_level_column_mux
XXMUX13 bl_13 br_13 bl_out_3 br_out_3 sel_1 gnd single_level_column_mux
XXMUX14 bl_14 br_14 bl_out_3 br_out_3 sel_2 gnd single_level_column_mux
XXMUX15 bl_15 br_15 bl_out_3 br_out_3 sel_3 gnd single_level_column_mux
XXMUX16 bl_16 br_16 bl_out_4 br_out_4 sel_0 gnd single_level_column_mux
XXMUX17 bl_17 br_17 bl_out_4 br_out_4 sel_1 gnd single_level_column_mux
XXMUX18 bl_18 br_18 bl_out_4 br_out_4 sel_2 gnd single_level_column_mux
XXMUX19 bl_19 br_19 bl_out_4 br_out_4 sel_3 gnd single_level_column_mux
XXMUX20 bl_20 br_20 bl_out_5 br_out_5 sel_0 gnd single_level_column_mux
XXMUX21 bl_21 br_21 bl_out_5 br_out_5 sel_1 gnd single_level_column_mux
XXMUX22 bl_22 br_22 bl_out_5 br_out_5 sel_2 gnd single_level_column_mux
XXMUX23 bl_23 br_23 bl_out_5 br_out_5 sel_3 gnd single_level_column_mux
XXMUX24 bl_24 br_24 bl_out_6 br_out_6 sel_0 gnd single_level_column_mux
XXMUX25 bl_25 br_25 bl_out_6 br_out_6 sel_1 gnd single_level_column_mux
XXMUX26 bl_26 br_26 bl_out_6 br_out_6 sel_2 gnd single_level_column_mux
XXMUX27 bl_27 br_27 bl_out_6 br_out_6 sel_3 gnd single_level_column_mux
XXMUX28 bl_28 br_28 bl_out_7 br_out_7 sel_0 gnd single_level_column_mux
XXMUX29 bl_29 br_29 bl_out_7 br_out_7 sel_1 gnd single_level_column_mux
XXMUX30 bl_30 br_30 bl_out_7 br_out_7 sel_2 gnd single_level_column_mux
XXMUX31 bl_31 br_31 bl_out_7 br_out_7 sel_3 gnd single_level_column_mux
.ENDS single_level_column_mux_array
*********************** Write_Driver ******************************
.SUBCKT write_driver din bl br en vdd gnd

**** Inverter to conver Data_in to data_in_bar ******
* din_bar = inv(din)
M_1 din_bar din gnd gnd n W=0.8u L=0.4u
M_2 din_bar din vdd vdd p W=1.4u L=0.4u

**** 2input nand gate follwed by inverter to drive BL ******
* din_bar_gated = nand(en, din)
M_3 din_bar_gated en net_7 gnd n W=1.4u L=0.4u
M_4 net_7 din gnd gnd n W=1.4u L=0.4u
M_5 din_bar_gated en vdd vdd p W=1.4u L=0.4u
M_6 din_bar_gated din vdd vdd p W=1.4u L=0.4u
* din_bar_gated_bar = inv(din_bar_gated)
M_7 din_bar_gated_bar din_bar_gated vdd vdd p W=1.4u L=0.4u
M_8 din_bar_gated_bar din_bar_gated gnd gnd n W=0.8u L=0.4u

**** 2input nand gate follwed by inverter to drive BR******
* din_gated = nand(en, din_bar)
M_9 din_gated en vdd vdd p W=1.4u L=0.4u
M_10 din_gated en net_8 gnd n W=1.4u L=0.4u
M_11 net_8 din_bar gnd gnd n W=1.4u L=0.4u
M_12 din_gated din_bar vdd vdd p W=1.4u L=0.4u
* din_gated_bar = inv(din_gated)
M_13 din_gated_bar din_gated vdd vdd p W=1.4u L=0.4u
M_14 din_gated_bar din_gated gnd gnd n W=0.8u L=0.4u

************************************************
* pull down with en enable
M_15 bl din_gated_bar gnd gnd n W=2.4u L=0.4u
M_16 br din_bar_gated_bar gnd gnd n W=2.4u L=0.4u



.ENDS   $ write_driver

.SUBCKT write_driver_array data_0 data_1 data_2 data_3 data_4 data_5 data_6 data_7 bl_0 br_0 bl_1 br_1 bl_2 br_2 bl_3 br_3 bl_4 br_4 bl_5 br_5 bl_6 br_6 bl_7 br_7 en vdd gnd
* INPUT : data_0 
* INPUT : data_1 
* INPUT : data_2 
* INPUT : data_3 
* INPUT : data_4 
* INPUT : data_5 
* INPUT : data_6 
* INPUT : data_7 
* OUTPUT: bl_0 
* OUTPUT: br_0 
* OUTPUT: bl_1 
* OUTPUT: br_1 
* OUTPUT: bl_2 
* OUTPUT: br_2 
* OUTPUT: bl_3 
* OUTPUT: br_3 
* OUTPUT: bl_4 
* OUTPUT: br_4 
* OUTPUT: bl_5 
* OUTPUT: br_5 
* OUTPUT: bl_6 
* OUTPUT: br_6 
* OUTPUT: bl_7 
* OUTPUT: br_7 
* INPUT : en 
* POWER : vdd 
* GROUND: gnd 
* word_size 8
Xwrite_driver0 data_0 bl_0 br_0 en vdd gnd write_driver
Xwrite_driver4 data_1 bl_1 br_1 en vdd gnd write_driver
Xwrite_driver8 data_2 bl_2 br_2 en vdd gnd write_driver
Xwrite_driver12 data_3 bl_3 br_3 en vdd gnd write_driver
Xwrite_driver16 data_4 bl_4 br_4 en vdd gnd write_driver
Xwrite_driver20 data_5 bl_5 br_5 en vdd gnd write_driver
Xwrite_driver24 data_6 bl_6 br_6 en vdd gnd write_driver
Xwrite_driver28 data_7 bl_7 br_7 en vdd gnd write_driver
.ENDS write_driver_array

.SUBCKT port_data rbl_bl rbl_br bl_0 br_0 bl_1 br_1 bl_2 br_2 bl_3 br_3 bl_4 br_4 bl_5 br_5 bl_6 br_6 bl_7 br_7 bl_8 br_8 bl_9 br_9 bl_10 br_10 bl_11 br_11 bl_12 br_12 bl_13 br_13 bl_14 br_14 bl_15 br_15 bl_16 br_16 bl_17 br_17 bl_18 br_18 bl_19 br_19 bl_20 br_20 bl_21 br_21 bl_22 br_22 bl_23 br_23 bl_24 br_24 bl_25 br_25 bl_26 br_26 bl_27 br_27 bl_28 br_28 bl_29 br_29 bl_30 br_30 bl_31 br_31 dout_0 dout_1 dout_2 dout_3 dout_4 dout_5 dout_6 dout_7 din_0 din_1 din_2 din_3 din_4 din_5 din_6 din_7 sel_0 sel_1 sel_2 sel_3 s_en p_en_bar w_en vdd gnd
* INOUT : rbl_bl 
* INOUT : rbl_br 
* INOUT : bl_0 
* INOUT : br_0 
* INOUT : bl_1 
* INOUT : br_1 
* INOUT : bl_2 
* INOUT : br_2 
* INOUT : bl_3 
* INOUT : br_3 
* INOUT : bl_4 
* INOUT : br_4 
* INOUT : bl_5 
* INOUT : br_5 
* INOUT : bl_6 
* INOUT : br_6 
* INOUT : bl_7 
* INOUT : br_7 
* INOUT : bl_8 
* INOUT : br_8 
* INOUT : bl_9 
* INOUT : br_9 
* INOUT : bl_10 
* INOUT : br_10 
* INOUT : bl_11 
* INOUT : br_11 
* INOUT : bl_12 
* INOUT : br_12 
* INOUT : bl_13 
* INOUT : br_13 
* INOUT : bl_14 
* INOUT : br_14 
* INOUT : bl_15 
* INOUT : br_15 
* INOUT : bl_16 
* INOUT : br_16 
* INOUT : bl_17 
* INOUT : br_17 
* INOUT : bl_18 
* INOUT : br_18 
* INOUT : bl_19 
* INOUT : br_19 
* INOUT : bl_20 
* INOUT : br_20 
* INOUT : bl_21 
* INOUT : br_21 
* INOUT : bl_22 
* INOUT : br_22 
* INOUT : bl_23 
* INOUT : br_23 
* INOUT : bl_24 
* INOUT : br_24 
* INOUT : bl_25 
* INOUT : br_25 
* INOUT : bl_26 
* INOUT : br_26 
* INOUT : bl_27 
* INOUT : br_27 
* INOUT : bl_28 
* INOUT : br_28 
* INOUT : bl_29 
* INOUT : br_29 
* INOUT : bl_30 
* INOUT : br_30 
* INOUT : bl_31 
* INOUT : br_31 
* OUTPUT: dout_0 
* OUTPUT: dout_1 
* OUTPUT: dout_2 
* OUTPUT: dout_3 
* OUTPUT: dout_4 
* OUTPUT: dout_5 
* OUTPUT: dout_6 
* OUTPUT: dout_7 
* INPUT : din_0 
* INPUT : din_1 
* INPUT : din_2 
* INPUT : din_3 
* INPUT : din_4 
* INPUT : din_5 
* INPUT : din_6 
* INPUT : din_7 
* INPUT : sel_0 
* INPUT : sel_1 
* INPUT : sel_2 
* INPUT : sel_3 
* INPUT : s_en 
* INPUT : p_en_bar 
* INPUT : w_en 
* POWER : vdd 
* GROUND: gnd 
Xprecharge_array0 rbl_bl rbl_br bl_0 br_0 bl_1 br_1 bl_2 br_2 bl_3 br_3 bl_4 br_4 bl_5 br_5 bl_6 br_6 bl_7 br_7 bl_8 br_8 bl_9 br_9 bl_10 br_10 bl_11 br_11 bl_12 br_12 bl_13 br_13 bl_14 br_14 bl_15 br_15 bl_16 br_16 bl_17 br_17 bl_18 br_18 bl_19 br_19 bl_20 br_20 bl_21 br_21 bl_22 br_22 bl_23 br_23 bl_24 br_24 bl_25 br_25 bl_26 br_26 bl_27 br_27 bl_28 br_28 bl_29 br_29 bl_30 br_30 bl_31 br_31 p_en_bar vdd precharge_array
Xsense_amp_array0 dout_0 bl_out_0 br_out_0 dout_1 bl_out_1 br_out_1 dout_2 bl_out_2 br_out_2 dout_3 bl_out_3 br_out_3 dout_4 bl_out_4 br_out_4 dout_5 bl_out_5 br_out_5 dout_6 bl_out_6 br_out_6 dout_7 bl_out_7 br_out_7 s_en vdd gnd sense_amp_array
Xwrite_driver_array0 din_0 din_1 din_2 din_3 din_4 din_5 din_6 din_7 bl_out_0 br_out_0 bl_out_1 br_out_1 bl_out_2 br_out_2 bl_out_3 br_out_3 bl_out_4 br_out_4 bl_out_5 br_out_5 bl_out_6 br_out_6 bl_out_7 br_out_7 w_en vdd gnd write_driver_array
Xcolumn_mux_array0 bl_0 br_0 bl_1 br_1 bl_2 br_2 bl_3 br_3 bl_4 br_4 bl_5 br_5 bl_6 br_6 bl_7 br_7 bl_8 br_8 bl_9 br_9 bl_10 br_10 bl_11 br_11 bl_12 br_12 bl_13 br_13 bl_14 br_14 bl_15 br_15 bl_16 br_16 bl_17 br_17 bl_18 br_18 bl_19 br_19 bl_20 br_20 bl_21 br_21 bl_22 br_22 bl_23 br_23 bl_24 br_24 bl_25 br_25 bl_26 br_26 bl_27 br_27 bl_28 br_28 bl_29 br_29 bl_30 br_30 bl_31 br_31 sel_0 sel_1 sel_2 sel_3 bl_out_0 br_out_0 bl_out_1 br_out_1 bl_out_2 br_out_2 bl_out_3 br_out_3 bl_out_4 br_out_4 bl_out_5 br_out_5 bl_out_6 br_out_6 bl_out_7 br_out_7 gnd single_level_column_mux_array
.ENDS port_data

* ptx M{0} {1} n m=1 w=1.6u l=0.4u pd=4.00u ps=4.00u as=1.60p ad=1.60p

* ptx M{0} {1} n m=1 w=1.6u l=0.4u pd=4.00u ps=4.00u as=1.60p ad=1.60p

.SUBCKT pnand2 A B Z vdd gnd
* INPUT : A 
* INPUT : B 
* OUTPUT: Z 
* POWER : vdd 
* GROUND: gnd 
Mpnand2_pmos1 vdd A Z vdd p m=1 w=1.6u l=0.4u pd=4.00u ps=4.00u as=1.60p ad=1.60p
Mpnand2_pmos2 Z B vdd vdd p m=1 w=1.6u l=0.4u pd=4.00u ps=4.00u as=1.60p ad=1.60p
Mpnand2_nmos1 Z B net1 gnd n m=1 w=1.6u l=0.4u pd=4.00u ps=4.00u as=1.60p ad=1.60p
Mpnand2_nmos2 net1 A gnd gnd n m=1 w=1.6u l=0.4u pd=4.00u ps=4.00u as=1.60p ad=1.60p
.ENDS pnand2

* ptx M{0} {1} n m=1 w=0.8u l=0.4u pd=2.40u ps=2.40u as=0.80p ad=0.80p

* ptx M{0} {1} p m=1 w=1.6u l=0.4u pd=4.00u ps=4.00u as=1.60p ad=1.60p

.SUBCKT pinv A Z vdd gnd
* INPUT : A 
* OUTPUT: Z 
* POWER : vdd 
* GROUND: gnd 
Mpinv_pmos Z A vdd vdd p m=1 w=1.6u l=0.4u pd=4.00u ps=4.00u as=1.60p ad=1.60p
Mpinv_nmos Z A gnd gnd n m=1 w=0.8u l=0.4u pd=2.40u ps=2.40u as=0.80p ad=0.80p
.ENDS pinv

.SUBCKT and2_dec A B Z vdd gnd
* INPUT : A 
* INPUT : B 
* OUTPUT: Z 
* POWER : vdd 
* GROUND: gnd 
* size: 1
Xpand2_dec_nand A B zb_int vdd gnd pnand2
Xpand2_dec_inv zb_int Z vdd gnd pinv
.ENDS and2_dec

* ptx M{0} {1} n m=1 w=1.6u l=0.4u pd=4.00u ps=4.00u as=1.60p ad=1.60p

.SUBCKT pnand3 A B C Z vdd gnd
* INPUT : A 
* INPUT : B 
* INPUT : C 
* OUTPUT: Z 
* POWER : vdd 
* GROUND: gnd 
Mpnand3_pmos1 vdd A Z vdd p m=1 w=1.6u l=0.4u pd=4.00u ps=4.00u as=1.60p ad=1.60p
Mpnand3_pmos2 Z B vdd vdd p m=1 w=1.6u l=0.4u pd=4.00u ps=4.00u as=1.60p ad=1.60p
Mpnand3_pmos3 Z C vdd vdd p m=1 w=1.6u l=0.4u pd=4.00u ps=4.00u as=1.60p ad=1.60p
Mpnand3_nmos1 Z C net1 gnd n m=1 w=1.6u l=0.4u pd=4.00u ps=4.00u as=1.60p ad=1.60p
Mpnand3_nmos2 net1 B net2 gnd n m=1 w=1.6u l=0.4u pd=4.00u ps=4.00u as=1.60p ad=1.60p
Mpnand3_nmos3 net2 A gnd gnd n m=1 w=1.6u l=0.4u pd=4.00u ps=4.00u as=1.60p ad=1.60p
.ENDS pnand3

.SUBCKT and3_dec A B C Z vdd gnd
* INPUT : A 
* INPUT : B 
* INPUT : C 
* OUTPUT: Z 
* POWER : vdd 
* GROUND: gnd 
* size: 1
Xpand3_dec_nand A B C zb_int vdd gnd pnand3
Xpand3_dec_inv zb_int Z vdd gnd pinv
.ENDS and3_dec

.SUBCKT hierarchical_predecode2x4 in_0 in_1 out_0 out_1 out_2 out_3 vdd gnd
* INPUT : in_0 
* INPUT : in_1 
* OUTPUT: out_0 
* OUTPUT: out_1 
* OUTPUT: out_2 
* OUTPUT: out_3 
* POWER : vdd 
* GROUND: gnd 
Xpre_inv_0 in_0 inbar_0 vdd gnd pinv
Xpre_inv_1 in_1 inbar_1 vdd gnd pinv
XXpre2x4_and_0 inbar_0 inbar_1 out_0 vdd gnd and2_dec
XXpre2x4_and_1 in_0 inbar_1 out_1 vdd gnd and2_dec
XXpre2x4_and_2 inbar_0 in_1 out_2 vdd gnd and2_dec
XXpre2x4_and_3 in_0 in_1 out_3 vdd gnd and2_dec
.ENDS hierarchical_predecode2x4

.SUBCKT hierarchical_predecode3x8 in_0 in_1 in_2 out_0 out_1 out_2 out_3 out_4 out_5 out_6 out_7 vdd gnd
* INPUT : in_0 
* INPUT : in_1 
* INPUT : in_2 
* OUTPUT: out_0 
* OUTPUT: out_1 
* OUTPUT: out_2 
* OUTPUT: out_3 
* OUTPUT: out_4 
* OUTPUT: out_5 
* OUTPUT: out_6 
* OUTPUT: out_7 
* POWER : vdd 
* GROUND: gnd 
Xpre_inv_0 in_0 inbar_0 vdd gnd pinv
Xpre_inv_1 in_1 inbar_1 vdd gnd pinv
Xpre_inv_2 in_2 inbar_2 vdd gnd pinv
XXpre3x8_and_0 inbar_0 inbar_1 inbar_2 out_0 vdd gnd and3_dec
XXpre3x8_and_1 in_0 inbar_1 inbar_2 out_1 vdd gnd and3_dec
XXpre3x8_and_2 inbar_0 in_1 inbar_2 out_2 vdd gnd and3_dec
XXpre3x8_and_3 in_0 in_1 inbar_2 out_3 vdd gnd and3_dec
XXpre3x8_and_4 inbar_0 inbar_1 in_2 out_4 vdd gnd and3_dec
XXpre3x8_and_5 in_0 inbar_1 in_2 out_5 vdd gnd and3_dec
XXpre3x8_and_6 inbar_0 in_1 in_2 out_6 vdd gnd and3_dec
XXpre3x8_and_7 in_0 in_1 in_2 out_7 vdd gnd and3_dec
.ENDS hierarchical_predecode3x8

.SUBCKT hierarchical_decoder addr_0 addr_1 addr_2 addr_3 addr_4 decode_0 decode_1 decode_2 decode_3 decode_4 decode_5 decode_6 decode_7 decode_8 decode_9 decode_10 decode_11 decode_12 decode_13 decode_14 decode_15 decode_16 decode_17 decode_18 decode_19 decode_20 decode_21 decode_22 decode_23 decode_24 decode_25 decode_26 decode_27 decode_28 decode_29 decode_30 decode_31 vdd gnd
* INPUT : addr_0 
* INPUT : addr_1 
* INPUT : addr_2 
* INPUT : addr_3 
* INPUT : addr_4 
* OUTPUT: decode_0 
* OUTPUT: decode_1 
* OUTPUT: decode_2 
* OUTPUT: decode_3 
* OUTPUT: decode_4 
* OUTPUT: decode_5 
* OUTPUT: decode_6 
* OUTPUT: decode_7 
* OUTPUT: decode_8 
* OUTPUT: decode_9 
* OUTPUT: decode_10 
* OUTPUT: decode_11 
* OUTPUT: decode_12 
* OUTPUT: decode_13 
* OUTPUT: decode_14 
* OUTPUT: decode_15 
* OUTPUT: decode_16 
* OUTPUT: decode_17 
* OUTPUT: decode_18 
* OUTPUT: decode_19 
* OUTPUT: decode_20 
* OUTPUT: decode_21 
* OUTPUT: decode_22 
* OUTPUT: decode_23 
* OUTPUT: decode_24 
* OUTPUT: decode_25 
* OUTPUT: decode_26 
* OUTPUT: decode_27 
* OUTPUT: decode_28 
* OUTPUT: decode_29 
* OUTPUT: decode_30 
* OUTPUT: decode_31 
* POWER : vdd 
* GROUND: gnd 
Xpre_0 addr_0 addr_1 out_0 out_1 out_2 out_3 vdd gnd hierarchical_predecode2x4
Xpre3x8_0 addr_2 addr_3 addr_4 out_4 out_5 out_6 out_7 out_8 out_9 out_10 out_11 vdd gnd hierarchical_predecode3x8
XDEC_AND_0 out_0 out_4 decode_0 vdd gnd and2_dec
XDEC_AND_4 out_0 out_5 decode_4 vdd gnd and2_dec
XDEC_AND_8 out_0 out_6 decode_8 vdd gnd and2_dec
XDEC_AND_12 out_0 out_7 decode_12 vdd gnd and2_dec
XDEC_AND_16 out_0 out_8 decode_16 vdd gnd and2_dec
XDEC_AND_20 out_0 out_9 decode_20 vdd gnd and2_dec
XDEC_AND_24 out_0 out_10 decode_24 vdd gnd and2_dec
XDEC_AND_28 out_0 out_11 decode_28 vdd gnd and2_dec
XDEC_AND_1 out_1 out_4 decode_1 vdd gnd and2_dec
XDEC_AND_5 out_1 out_5 decode_5 vdd gnd and2_dec
XDEC_AND_9 out_1 out_6 decode_9 vdd gnd and2_dec
XDEC_AND_13 out_1 out_7 decode_13 vdd gnd and2_dec
XDEC_AND_17 out_1 out_8 decode_17 vdd gnd and2_dec
XDEC_AND_21 out_1 out_9 decode_21 vdd gnd and2_dec
XDEC_AND_25 out_1 out_10 decode_25 vdd gnd and2_dec
XDEC_AND_29 out_1 out_11 decode_29 vdd gnd and2_dec
XDEC_AND_2 out_2 out_4 decode_2 vdd gnd and2_dec
XDEC_AND_6 out_2 out_5 decode_6 vdd gnd and2_dec
XDEC_AND_10 out_2 out_6 decode_10 vdd gnd and2_dec
XDEC_AND_14 out_2 out_7 decode_14 vdd gnd and2_dec
XDEC_AND_18 out_2 out_8 decode_18 vdd gnd and2_dec
XDEC_AND_22 out_2 out_9 decode_22 vdd gnd and2_dec
XDEC_AND_26 out_2 out_10 decode_26 vdd gnd and2_dec
XDEC_AND_30 out_2 out_11 decode_30 vdd gnd and2_dec
XDEC_AND_3 out_3 out_4 decode_3 vdd gnd and2_dec
XDEC_AND_7 out_3 out_5 decode_7 vdd gnd and2_dec
XDEC_AND_11 out_3 out_6 decode_11 vdd gnd and2_dec
XDEC_AND_15 out_3 out_7 decode_15 vdd gnd and2_dec
XDEC_AND_19 out_3 out_8 decode_19 vdd gnd and2_dec
XDEC_AND_23 out_3 out_9 decode_23 vdd gnd and2_dec
XDEC_AND_27 out_3 out_10 decode_27 vdd gnd and2_dec
XDEC_AND_31 out_3 out_11 decode_31 vdd gnd and2_dec
.ENDS hierarchical_decoder

* ptx M{0} {1} n m=1 w=25.6u l=0.4u pd=52.00u ps=52.00u as=25.60p ad=25.60p

* ptx M{0} {1} p m=1 w=51.2u l=0.4u pd=103.20u ps=103.20u as=51.20p ad=51.20p

.SUBCKT pinv_0 A Z vdd gnd
* INPUT : A 
* OUTPUT: Z 
* POWER : vdd 
* GROUND: gnd 
Mpinv_pmos Z A vdd vdd p m=1 w=51.2u l=0.4u pd=103.20u ps=103.20u as=51.20p ad=51.20p
Mpinv_nmos Z A gnd gnd n m=1 w=25.6u l=0.4u pd=52.00u ps=52.00u as=25.60p ad=25.60p
.ENDS pinv_0

.SUBCKT wordline_driver A B Z vdd gnd
* INPUT : A 
* INPUT : B 
* OUTPUT: Z 
* POWER : vdd 
* GROUND: gnd 
Xwld_nand A B zb_int vdd gnd pnand2
Xwl_driver zb_int Z vdd gnd pinv_0
.ENDS wordline_driver

.SUBCKT wordline_driver_array in_0 in_1 in_2 in_3 in_4 in_5 in_6 in_7 in_8 in_9 in_10 in_11 in_12 in_13 in_14 in_15 in_16 in_17 in_18 in_19 in_20 in_21 in_22 in_23 in_24 in_25 in_26 in_27 in_28 in_29 in_30 in_31 wl_0 wl_1 wl_2 wl_3 wl_4 wl_5 wl_6 wl_7 wl_8 wl_9 wl_10 wl_11 wl_12 wl_13 wl_14 wl_15 wl_16 wl_17 wl_18 wl_19 wl_20 wl_21 wl_22 wl_23 wl_24 wl_25 wl_26 wl_27 wl_28 wl_29 wl_30 wl_31 en vdd gnd
* INPUT : in_0 
* INPUT : in_1 
* INPUT : in_2 
* INPUT : in_3 
* INPUT : in_4 
* INPUT : in_5 
* INPUT : in_6 
* INPUT : in_7 
* INPUT : in_8 
* INPUT : in_9 
* INPUT : in_10 
* INPUT : in_11 
* INPUT : in_12 
* INPUT : in_13 
* INPUT : in_14 
* INPUT : in_15 
* INPUT : in_16 
* INPUT : in_17 
* INPUT : in_18 
* INPUT : in_19 
* INPUT : in_20 
* INPUT : in_21 
* INPUT : in_22 
* INPUT : in_23 
* INPUT : in_24 
* INPUT : in_25 
* INPUT : in_26 
* INPUT : in_27 
* INPUT : in_28 
* INPUT : in_29 
* INPUT : in_30 
* INPUT : in_31 
* OUTPUT: wl_0 
* OUTPUT: wl_1 
* OUTPUT: wl_2 
* OUTPUT: wl_3 
* OUTPUT: wl_4 
* OUTPUT: wl_5 
* OUTPUT: wl_6 
* OUTPUT: wl_7 
* OUTPUT: wl_8 
* OUTPUT: wl_9 
* OUTPUT: wl_10 
* OUTPUT: wl_11 
* OUTPUT: wl_12 
* OUTPUT: wl_13 
* OUTPUT: wl_14 
* OUTPUT: wl_15 
* OUTPUT: wl_16 
* OUTPUT: wl_17 
* OUTPUT: wl_18 
* OUTPUT: wl_19 
* OUTPUT: wl_20 
* OUTPUT: wl_21 
* OUTPUT: wl_22 
* OUTPUT: wl_23 
* OUTPUT: wl_24 
* OUTPUT: wl_25 
* OUTPUT: wl_26 
* OUTPUT: wl_27 
* OUTPUT: wl_28 
* OUTPUT: wl_29 
* OUTPUT: wl_30 
* OUTPUT: wl_31 
* INPUT : en 
* POWER : vdd 
* GROUND: gnd 
* rows: 32 cols: 32
Xwl_driver_and0 in_0 en wl_0 vdd gnd wordline_driver
Xwl_driver_and1 in_1 en wl_1 vdd gnd wordline_driver
Xwl_driver_and2 in_2 en wl_2 vdd gnd wordline_driver
Xwl_driver_and3 in_3 en wl_3 vdd gnd wordline_driver
Xwl_driver_and4 in_4 en wl_4 vdd gnd wordline_driver
Xwl_driver_and5 in_5 en wl_5 vdd gnd wordline_driver
Xwl_driver_and6 in_6 en wl_6 vdd gnd wordline_driver
Xwl_driver_and7 in_7 en wl_7 vdd gnd wordline_driver
Xwl_driver_and8 in_8 en wl_8 vdd gnd wordline_driver
Xwl_driver_and9 in_9 en wl_9 vdd gnd wordline_driver
Xwl_driver_and10 in_10 en wl_10 vdd gnd wordline_driver
Xwl_driver_and11 in_11 en wl_11 vdd gnd wordline_driver
Xwl_driver_and12 in_12 en wl_12 vdd gnd wordline_driver
Xwl_driver_and13 in_13 en wl_13 vdd gnd wordline_driver
Xwl_driver_and14 in_14 en wl_14 vdd gnd wordline_driver
Xwl_driver_and15 in_15 en wl_15 vdd gnd wordline_driver
Xwl_driver_and16 in_16 en wl_16 vdd gnd wordline_driver
Xwl_driver_and17 in_17 en wl_17 vdd gnd wordline_driver
Xwl_driver_and18 in_18 en wl_18 vdd gnd wordline_driver
Xwl_driver_and19 in_19 en wl_19 vdd gnd wordline_driver
Xwl_driver_and20 in_20 en wl_20 vdd gnd wordline_driver
Xwl_driver_and21 in_21 en wl_21 vdd gnd wordline_driver
Xwl_driver_and22 in_22 en wl_22 vdd gnd wordline_driver
Xwl_driver_and23 in_23 en wl_23 vdd gnd wordline_driver
Xwl_driver_and24 in_24 en wl_24 vdd gnd wordline_driver
Xwl_driver_and25 in_25 en wl_25 vdd gnd wordline_driver
Xwl_driver_and26 in_26 en wl_26 vdd gnd wordline_driver
Xwl_driver_and27 in_27 en wl_27 vdd gnd wordline_driver
Xwl_driver_and28 in_28 en wl_28 vdd gnd wordline_driver
Xwl_driver_and29 in_29 en wl_29 vdd gnd wordline_driver
Xwl_driver_and30 in_30 en wl_30 vdd gnd wordline_driver
Xwl_driver_and31 in_31 en wl_31 vdd gnd wordline_driver
.ENDS wordline_driver_array

.SUBCKT port_address addr_0 addr_1 addr_2 addr_3 addr_4 wl_en wl_0 wl_1 wl_2 wl_3 wl_4 wl_5 wl_6 wl_7 wl_8 wl_9 wl_10 wl_11 wl_12 wl_13 wl_14 wl_15 wl_16 wl_17 wl_18 wl_19 wl_20 wl_21 wl_22 wl_23 wl_24 wl_25 wl_26 wl_27 wl_28 wl_29 wl_30 wl_31 vdd gnd
* INPUT : addr_0 
* INPUT : addr_1 
* INPUT : addr_2 
* INPUT : addr_3 
* INPUT : addr_4 
* INPUT : wl_en 
* OUTPUT: wl_0 
* OUTPUT: wl_1 
* OUTPUT: wl_2 
* OUTPUT: wl_3 