**************************************************
* OpenRAM generated memory.
* Words: 128
* Data bits: 32
* Banks: 1
* Column mux: 2:1
**************************************************
*********************** "dff" ******************************
* Positive edge-triggered FF
.SUBCKT dff D Q clk vdd gnd

* SPICE3 file created from dff.ext - technology: scmos

M1000 vdd clk a_24_24# vdd p w=8u l=0.4u
M1001 a_84_296# D vdd vdd p w=4u l=0.4u
M1002 a_104_24# clk a_84_296# vdd p w=4u l=0.4u
M1003 a_140_296# a_24_24# a_104_24# vdd p w=4u l=0.4u
M1004 vdd a_152_16# a_140_296# vdd p w=4u l=0.4u
M1005 a_152_16# a_104_24# vdd vdd p w=4u l=0.4u
M1006 a_260_296# a_152_16# vdd vdd p w=4u l=0.4u
M1007 a_280_24# a_24_24# a_260_296# vdd p w=4u l=0.4u
M1008 a_320_336# clk a_280_24# vdd p w=2u l=0.4u
M1009 vdd Q a_320_336# vdd p w=2u l=0.4u
M1010 gnd clk a_24_24# gnd n w=4u l=0.4u
M1011 Q a_280_24# vdd vdd p w=8u l=0.4u
M1012 a_84_24# D gnd gnd n w=2u l=0.4u
M1013 a_104_24# a_24_24# a_84_24# gnd n w=2u l=0.4u
M1014 a_140_24# clk a_104_24# gnd n w=2u l=0.4u
M1015 gnd a_152_16# a_140_24# gnd n w=2u l=0.4u
M1016 a_152_16# a_104_24# gnd gnd n w=2u l=0.4u
M1017 a_260_24# a_152_16# gnd gnd n w=2u l=0.4u
M1018 a_280_24# clk a_260_24# gnd n w=2u l=0.4u
M1019 a_320_24# a_24_24# a_280_24# gnd n w=2u l=0.4u
M1020 gnd Q a_320_24# gnd n w=2u l=0.4u
M1021 Q a_280_24# gnd gnd n w=4u l=0.4u

.ENDS

.SUBCKT row_addr_dff din_0 din_1 din_2 din_3 din_4 din_5 dout_0 dout_1 dout_2 dout_3 dout_4 dout_5 clk vdd gnd
* INPUT : din_0 
* INPUT : din_1 
* INPUT : din_2 
* INPUT : din_3 
* INPUT : din_4 
* INPUT : din_5 
* OUTPUT: dout_0 
* OUTPUT: dout_1 
* OUTPUT: dout_2 
* OUTPUT: dout_3 
* OUTPUT: dout_4 
* OUTPUT: dout_5 
* INPUT : clk 
* POWER : vdd 
* GROUND: gnd 
* rows: 6 cols: 1
Xdff_r0_c0 din_0 dout_0 clk vdd gnd dff
Xdff_r1_c0 din_1 dout_1 clk vdd gnd dff
Xdff_r2_c0 din_2 dout_2 clk vdd gnd dff
Xdff_r3_c0 din_3 dout_3 clk vdd gnd dff
Xdff_r4_c0 din_4 dout_4 clk vdd gnd dff
Xdff_r5_c0 din_5 dout_5 clk vdd gnd dff
.ENDS row_addr_dff

.SUBCKT col_addr_dff din_0 dout_0 clk vdd gnd
* INPUT : din_0 
* OUTPUT: dout_0 
* INPUT : clk 
* POWER : vdd 
* GROUND: gnd 
* rows: 1 cols: 1
Xdff_r0_c0 din_0 dout_0 clk vdd gnd dff
.ENDS col_addr_dff

.SUBCKT data_dff din_0 din_1 din_2 din_3 din_4 din_5 din_6 din_7 din_8 din_9 din_10 din_11 din_12 din_13 din_14 din_15 din_16 din_17 din_18 din_19 din_20 din_21 din_22 din_23 din_24 din_25 din_26 din_27 din_28 din_29 din_30 din_31 dout_0 dout_1 dout_2 dout_3 dout_4 dout_5 dout_6 dout_7 dout_8 dout_9 dout_10 dout_11 dout_12 dout_13 dout_14 dout_15 dout_16 dout_17 dout_18 dout_19 dout_20 dout_21 dout_22 dout_23 dout_24 dout_25 dout_26 dout_27 dout_28 dout_29 dout_30 dout_31 clk vdd gnd
* INPUT : din_0 
* INPUT : din_1 
* INPUT : din_2 
* INPUT : din_3 
* INPUT : din_4 
* INPUT : din_5 
* INPUT : din_6 
* INPUT : din_7 
* INPUT : din_8 
* INPUT : din_9 
* INPUT : din_10 
* INPUT : din_11 
* INPUT : din_12 
* INPUT : din_13 
* INPUT : din_14 
* INPUT : din_15 
* INPUT : din_16 
* INPUT : din_17 
* INPUT : din_18 
* INPUT : din_19 
* INPUT : din_20 
* INPUT : din_21 
* INPUT : din_22 
* INPUT : din_23 
* INPUT : din_24 
* INPUT : din_25 
* INPUT : din_26 
* INPUT : din_27 
* INPUT : din_28 
* INPUT : din_29 
* INPUT : din_30 
* INPUT : din_31 
* OUTPUT: dout_0 
* OUTPUT: dout_1 
* OUTPUT: dout_2 
* OUTPUT: dout_3 
* OUTPUT: dout_4 
* OUTPUT: dout_5 
* OUTPUT: dout_6 
* OUTPUT: dout_7 
* OUTPUT: dout_8 
* OUTPUT: dout_9 
* OUTPUT: dout_10 
* OUTPUT: dout_11 
* OUTPUT: dout_12 
* OUTPUT: dout_13 
* OUTPUT: dout_14 
* OUTPUT: dout_15 
* OUTPUT: dout_16 
* OUTPUT: dout_17 
* OUTPUT: dout_18 
* OUTPUT: dout_19 
* OUTPUT: dout_20 
* OUTPUT: dout_21 
* OUTPUT: dout_22 
* OUTPUT: dout_23 
* OUTPUT: dout_24 
* OUTPUT: dout_25 
* OUTPUT: dout_26 
* OUTPUT: dout_27 
* OUTPUT: dout_28 
* OUTPUT: dout_29 
* OUTPUT: dout_30 
* OUTPUT: dout_31 
* INPUT : clk 
* POWER : vdd 
* GROUND: gnd 
* rows: 1 cols: 32
Xdff_r0_c0 din_0 dout_0 clk vdd gnd dff
Xdff_r0_c1 din_1 dout_1 clk vdd gnd dff
Xdff_r0_c2 din_2 dout_2 clk vdd gnd dff
Xdff_r0_c3 din_3 dout_3 clk vdd gnd dff
Xdff_r0_c4 din_4 dout_4 clk vdd gnd dff
Xdff_r0_c5 din_5 dout_5 clk vdd gnd dff
Xdff_r0_c6 din_6 dout_6 clk vdd gnd dff
Xdff_r0_c7 din_7 dout_7 clk vdd gnd dff
Xdff_r0_c8 din_8 dout_8 clk vdd gnd dff
Xdff_r0_c9 din_9 dout_9 clk vdd gnd dff
Xdff_r0_c10 din_10 dout_10 clk vdd gnd dff
Xdff_r0_c11 din_11 dout_11 clk vdd gnd dff
Xdff_r0_c12 din_12 dout_12 clk vdd gnd dff
Xdff_r0_c13 din_13 dout_13 clk vdd gnd dff
Xdff_r0_c14 din_14 dout_14 clk vdd gnd dff
Xdff_r0_c15 din_15 dout_15 clk vdd gnd dff
Xdff_r0_c16 din_16 dout_16 clk vdd gnd dff
Xdff_r0_c17 din_17 dout_17 clk vdd gnd dff
Xdff_r0_c18 din_18 dout_18 clk vdd gnd dff
Xdff_r0_c19 din_19 dout_19 clk vdd gnd dff
Xdff_r0_c20 din_20 dout_20 clk vdd gnd dff
Xdff_r0_c21 din_21 dout_21 clk vdd gnd dff
Xdff_r0_c22 din_22 dout_22 clk vdd gnd dff
Xdff_r0_c23 din_23 dout_23 clk vdd gnd dff
Xdff_r0_c24 din_24 dout_24 clk vdd gnd dff
Xdff_r0_c25 din_25 dout_25 clk vdd gnd dff
Xdff_r0_c26 din_26 dout_26 clk vdd gnd dff
Xdff_r0_c27 din_27 dout_27 clk vdd gnd dff
Xdff_r0_c28 din_28 dout_28 clk vdd gnd dff
Xdff_r0_c29 din_29 dout_29 clk vdd gnd dff
Xdff_r0_c30 din_30 dout_30 clk vdd gnd dff
Xdff_r0_c31 din_31 dout_31 clk vdd gnd dff
.ENDS data_dff

* ptx M{0} {1} p m=1 w=1.6u l=0.4u pd=4.00u ps=4.00u as=1.60p ad=1.60p

.SUBCKT precharge_0 bl br en_bar vdd
* OUTPUT: bl 
* OUTPUT: br 
* INPUT : en_bar 
* POWER : vdd 
Mlower_pmos bl en_bar br vdd p m=1 w=1.6u l=0.4u pd=4.00u ps=4.00u as=1.60p ad=1.60p
Mupper_pmos1 bl en_bar vdd vdd p m=1 w=1.6u l=0.4u pd=4.00u ps=4.00u as=1.60p ad=1.60p
Mupper_pmos2 br en_bar vdd vdd p m=1 w=1.6u l=0.4u pd=4.00u ps=4.00u as=1.60p ad=1.60p
.ENDS precharge_0

.SUBCKT precharge_array bl_0 br_0 bl_1 br_1 bl_2 br_2 bl_3 br_3 bl_4 br_4 bl_5 br_5 bl_6 br_6 bl_7 br_7 bl_8 br_8 bl_9 br_9 bl_10 br_10 bl_11 br_11 bl_12 br_12 bl_13 br_13 bl_14 br_14 bl_15 br_15 bl_16 br_16 bl_17 br_17 bl_18 br_18 bl_19 br_19 bl_20 br_20 bl_21 br_21 bl_22 br_22 bl_23 br_23 bl_24 br_24 bl_25 br_25 bl_26 br_26 bl_27 br_27 bl_28 br_28 bl_29 br_29 bl_30 br_30 bl_31 br_31 bl_32 br_32 bl_33 br_33 bl_34 br_34 bl_35 br_35 bl_36 br_36 bl_37 br_37 bl_38 br_38 bl_39 br_39 bl_40 br_40 bl_41 br_41 bl_42 br_42 bl_43 br_43 bl_44 br_44 bl_45 br_45 bl_46 br_46 bl_47 br_47 bl_48 br_48 bl_49 br_49 bl_50 br_50 bl_51 br_51 bl_52 br_52 bl_53 br_53 bl_54 br_54 bl_55 br_55 bl_56 br_56 bl_57 br_57 bl_58 br_58 bl_59 br_59 bl_60 br_60 bl_61 br_61 bl_62 br_62 bl_63 br_63 bl_64 br_64 en_bar vdd
* OUTPUT: bl_0 
* OUTPUT: br_0 
* OUTPUT: bl_1 
* OUTPUT: br_1 
* OUTPUT: bl_2 
* OUTPUT: br_2 
* OUTPUT: bl_3 
* OUTPUT: br_3 
* OUTPUT: bl_4 
* OUTPUT: br_4 
* OUTPUT: bl_5 
* OUTPUT: br_5 
* OUTPUT: bl_6 
* OUTPUT: br_6 
* OUTPUT: bl_7 
* OUTPUT: br_7 
* OUTPUT: bl_8 
* OUTPUT: br_8 
* OUTPUT: bl_9 
* OUTPUT: br_9 
* OUTPUT: bl_10 
* OUTPUT: br_10 
* OUTPUT: bl_11 
* OUTPUT: br_11 
* OUTPUT: bl_12 
* OUTPUT: br_12 
* OUTPUT: bl_13 
* OUTPUT: br_13 
* OUTPUT: bl_14 
* OUTPUT: br_14 
* OUTPUT: bl_15 
* OUTPUT: br_15 
* OUTPUT: bl_16 
* OUTPUT: br_16 
* OUTPUT: bl_17 
* OUTPUT: br_17 
* OUTPUT: bl_18 
* OUTPUT: br_18 
* OUTPUT: bl_19 
* OUTPUT: br_19 
* OUTPUT: bl_20 
* OUTPUT: br_20 
* OUTPUT: bl_21 
* OUTPUT: br_21 
* OUTPUT: bl_22 
* OUTPUT: br_22 
* OUTPUT: bl_23 
* OUTPUT: br_23 
* OUTPUT: bl_24 
* OUTPUT: br_24 
* OUTPUT: bl_25 
* OUTPUT: br_25 
* OUTPUT: bl_26 
* OUTPUT: br_26 
* OUTPUT: bl_27 
* OUTPUT: br_27 
* OUTPUT: bl_28 
* OUTPUT: br_28 
* OUTPUT: bl_29 
* OUTPUT: br_29 
* OUTPUT: bl_30 
* OUTPUT: br_30 
* OUTPUT: bl_31 
* OUTPUT: br_31 
* OUTPUT: bl_32 
* OUTPUT: br_32 
* OUTPUT: bl_33 
* OUTPUT: br_33 
* OUTPUT: bl_34 
* OUTPUT: br_34 
* OUTPUT: bl_35 
* OUTPUT: br_35 
* OUTPUT: bl_36 
* OUTPUT: br_36 
* OUTPUT: bl_37 
* OUTPUT: br_37 
* OUTPUT: bl_38 
* OUTPUT: br_38 
* OUTPUT: bl_39 
* OUTPUT: br_39 
* OUTPUT: bl_40 
* OUTPUT: br_40 
* OUTPUT: bl_41 
* OUTPUT: br_41 
* OUTPUT: bl_42 
* OUTPUT: br_42 
* OUTPUT: bl_43 
* OUTPUT: br_43 
* OUTPUT: bl_44 
* OUTPUT: br_44 
* OUTPUT: bl_45 
* OUTPUT: br_45 
* OUTPUT: bl_46 
* OUTPUT: br_46 
* OUTPUT: bl_47 
* OUTPUT: br_47 
* OUTPUT: bl_48 
* OUTPUT: br_48 
* OUTPUT: bl_49 
* OUTPUT: br_49 
* OUTPUT: bl_50 
* OUTPUT: br_50 
* OUTPUT: bl_51 
* OUTPUT: br_51 
* OUTPUT: bl_52 
* OUTPUT: br_52 
* OUTPUT: bl_53 
* OUTPUT: br_53 
* OUTPUT: bl_54 
* OUTPUT: br_54 
* OUTPUT: bl_55 
* OUTPUT: br_55 
* OUTPUT: bl_56 
* OUTPUT: br_56 
* OUTPUT: bl_57 
* OUTPUT: br_57 
* OUTPUT: bl_58 
* OUTPUT: br_58 
* OUTPUT: bl_59 
* OUTPUT: br_59 
* OUTPUT: bl_60 
* OUTPUT: br_60 
* OUTPUT: bl_61 
* OUTPUT: br_61 
* OUTPUT: bl_62 
* OUTPUT: br_62 
* OUTPUT: bl_63 
* OUTPUT: br_63 
* OUTPUT: bl_64 
* OUTPUT: br_64 
* INPUT : en_bar 
* POWER : vdd 
* cols: 65 size: 1 bl: bl br: br
Xpre_column_0 bl_0 br_0 en_bar vdd precharge_0
Xpre_column_1 bl_1 br_1 en_bar vdd precharge_0
Xpre_column_2 bl_2 br_2 en_bar vdd precharge_0
Xpre_column_3 bl_3 br_3 en_bar vdd precharge_0
Xpre_column_4 bl_4 br_4 en_bar vdd precharge_0
Xpre_column_5 bl_5 br_5 en_bar vdd precharge_0
Xpre_column_6 bl_6 br_6 en_bar vdd precharge_0
Xpre_column_7 bl_7 br_7 en_bar vdd precharge_0
Xpre_column_8 bl_8 br_8 en_bar vdd precharge_0
Xpre_column_9 bl_9 br_9 en_bar vdd precharge_0
Xpre_column_10 bl_10 br_10 en_bar vdd precharge_0
Xpre_column_11 bl_11 br_11 en_bar vdd precharge_0
Xpre_column_12 bl_12 br_12 en_bar vdd precharge_0
Xpre_column_13 bl_13 br_13 en_bar vdd precharge_0
Xpre_column_14 bl_14 br_14 en_bar vdd precharge_0
Xpre_column_15 bl_15 br_15 en_bar vdd precharge_0
Xpre_column_16 bl_16 br_16 en_bar vdd precharge_0
Xpre_column_17 bl_17 br_17 en_bar vdd precharge_0
Xpre_column_18 bl_18 br_18 en_bar vdd precharge_0
Xpre_column_19 bl_19 br_19 en_bar vdd precharge_0
Xpre_column_20 bl_20 br_20 en_bar vdd precharge_0
Xpre_column_21 bl_21 br_21 en_bar vdd precharge_0
Xpre_column_22 bl_22 br_22 en_bar vdd precharge_0
Xpre_column_23 bl_23 br_23 en_bar vdd precharge_0
Xpre_column_24 bl_24 br_24 en_bar vdd precharge_0
Xpre_column_25 bl_25 br_25 en_bar vdd precharge_0
Xpre_column_26 bl_26 br_26 en_bar vdd precharge_0
Xpre_column_27 bl_27 br_27 en_bar vdd precharge_0
Xpre_column_28 bl_28 br_28 en_bar vdd precharge_0
Xpre_column_29 bl_29 br_29 en_bar vdd precharge_0
Xpre_column_30 bl_30 br_30 en_bar vdd precharge_0
Xpre_column_31 bl_31 br_31 en_bar vdd precharge_0
Xpre_column_32 bl_32 br_32 en_bar vdd precharge_0
Xpre_column_33 bl_33 br_33 en_bar vdd precharge_0
Xpre_column_34 bl_34 br_34 en_bar vdd precharge_0
Xpre_column_35 bl_35 br_35 en_bar vdd precharge_0
Xpre_column_36 bl_36 br_36 en_bar vdd precharge_0
Xpre_column_37 bl_37 br_37 en_bar vdd precharge_0
Xpre_column_38 bl_38 br_38 en_bar vdd precharge_0
Xpre_column_39 bl_39 br_39 en_bar vdd precharge_0
Xpre_column_40 bl_40 br_40 en_bar vdd precharge_0
Xpre_column_41 bl_41 br_41 en_bar vdd precharge_0
Xpre_column_42 bl_42 br_42 en_bar vdd precharge_0
Xpre_column_43 bl_43 br_43 en_bar vdd precharge_0
Xpre_column_44 bl_44 br_44 en_bar vdd precharge_0
Xpre_column_45 bl_45 br_45 en_bar vdd precharge_0
Xpre_column_46 bl_46 br_46 en_bar vdd precharge_0
Xpre_column_47 bl_47 br_47 en_bar vdd precharge_0
Xpre_column_48 bl_48 br_48 en_bar vdd precharge_0
Xpre_column_49 bl_49 br_49 en_bar vdd precharge_0
Xpre_column_50 bl_50 br_50 en_bar vdd precharge_0
Xpre_column_51 bl_51 br_51 en_bar vdd precharge_0
Xpre_column_52 bl_52 br_52 en_bar vdd precharge_0
Xpre_column_53 bl_53 br_53 en_bar vdd precharge_0
Xpre_column_54 bl_54 br_54 en_bar vdd precharge_0
Xpre_column_55 bl_55 br_55 en_bar vdd precharge_0
Xpre_column_56 bl_56 br_56 en_bar vdd precharge_0
Xpre_column_57 bl_57 br_57 en_bar vdd precharge_0
Xpre_column_58 bl_58 br_58 en_bar vdd precharge_0
Xpre_column_59 bl_59 br_59 en_bar vdd precharge_0
Xpre_column_60 bl_60 br_60 en_bar vdd precharge_0
Xpre_column_61 bl_61 br_61 en_bar vdd precharge_0
Xpre_column_62 bl_62 br_62 en_bar vdd precharge_0
Xpre_column_63 bl_63 br_63 en_bar vdd precharge_0
Xpre_column_64 bl_64 br_64 en_bar vdd precharge_0
.ENDS precharge_array
*********************** "sense_amp" ******************************

.SUBCKT sense_amp bl br dout en vdd gnd

* SPICE3 file created from sense_amp.ext - technology: scmos

M1000 gnd en a_56_432# gnd n w=1.8u l=0.4u
M1001 a_56_432# a_48_304# dout gnd n w=1.8u l=0.4u
M1002 a_48_304# dout a_56_432# gnd n w=1.8u l=0.4u
M1003 vdd a_48_304# dout vdd p w=3.6u l=0.4u
M1004 a_48_304# dout vdd vdd p w=3.6u l=0.4u
M1005 bl en dout vdd p w=4.8u l=0.4u
M1006 a_48_304# en br vdd p w=4.8u l=0.4u

.ENDS

.SUBCKT sense_amp_array data_0 bl_0 br_0 data_1 bl_1 br_1 data_2 bl_2 br_2 data_3 bl_3 br_3 data_4 bl_4 br_4 data_5 bl_5 br_5 data_6 bl_6 br_6 data_7 bl_7 br_7 data_8 bl_8 br_8 data_9 bl_9 br_9 data_10 bl_10 br_10 data_11 bl_11 br_11 data_12 bl_12 br_12 data_13 bl_13 br_13 data_14 bl_14 br_14 data_15 bl_15 br_15 data_16 bl_16 br_16 data_17 bl_17 br_17 data_18 bl_18 br_18 data_19 bl_19 br_19 data_20 bl_20 br_20 data_21 bl_21 br_21 data_22 bl_22 br_22 data_23 bl_23 br_23 data_24 bl_24 br_24 data_25 bl_25 br_25 data_26 bl_26 br_26 data_27 bl_27 br_27 data_28 bl_28 br_28 data_29 bl_29 br_29 data_30 bl_30 br_30 data_31 bl_31 br_31 en vdd gnd
* OUTPUT: data_0 
* INPUT : bl_0 
* INPUT : br_0 
* OUTPUT: data_1 
* INPUT : bl_1 
* INPUT : br_1 
* OUTPUT: data_2 
* INPUT : bl_2 
* INPUT : br_2 
* OUTPUT: data_3 
* INPUT : bl_3 
* INPUT : br_3 
* OUTPUT: data_4 
* INPUT : bl_4 
* INPUT : br_4 
* OUTPUT: data_5 
* INPUT : bl_5 
* INPUT : br_5 
* OUTPUT: data_6 
* INPUT : bl_6 
* INPUT : br_6 
* OUTPUT: data_7 
* INPUT : bl_7 
* INPUT : br_7 
* OUTPUT: data_8 
* INPUT : bl_8 
* INPUT : br_8 
* OUTPUT: data_9 
* INPUT : bl_9 
* INPUT : br_9 
* OUTPUT: data_10 
* INPUT : bl_10 
* INPUT : br_10 
* OUTPUT: data_11 
* INPUT : bl_11 
* INPUT : br_11 
* OUTPUT: data_12 
* INPUT : bl_12 
* INPUT : br_12 
* OUTPUT: data_13 
* INPUT : bl_13 
* INPUT : br_13 
* OUTPUT: data_14 
* INPUT : bl_14 
* INPUT : br_14 
* OUTPUT: data_15 
* INPUT : bl_15 
* INPUT : br_15 
* OUTPUT: data_16 
* INPUT : bl_16 
* INPUT : br_16 
* OUTPUT: data_17 
* INPUT : bl_17 
* INPUT : br_17 
* OUTPUT: data_18 
* INPUT : bl_18 
* INPUT : br_18 
* OUTPUT: data_19 
* INPUT : bl_19 
* INPUT : br_19 
* OUTPUT: data_20 
* INPUT : bl_20 
* INPUT : br_20 
* OUTPUT: data_21 
* INPUT : bl_21 
* INPUT : br_21 
* OUTPUT: data_22 
* INPUT : bl_22 
* INPUT : br_22 
* OUTPUT: data_23 
* INPUT : bl_23 
* INPUT : br_23 
* OUTPUT: data_24 
* INPUT : bl_24 
* INPUT : br_24 
* OUTPUT: data_25 
* INPUT : bl_25 
* INPUT : br_25 
* OUTPUT: data_26 
* INPUT : bl_26 
* INPUT : br_26 
* OUTPUT: data_27 
* INPUT : bl_27 
* INPUT : br_27 
* OUTPUT: data_28 
* INPUT : bl_28 
* INPUT : br_28 
* OUTPUT: data_29 
* INPUT : bl_29 
* INPUT : br_29 
* OUTPUT: data_30 
* INPUT : bl_30 
* INPUT : br_30 
* OUTPUT: data_31 
* INPUT : bl_31 
* INPUT : br_31 
* INPUT : en 
* POWER : vdd 
* GROUND: gnd 
* words_per_row: 2
Xsa_d0 bl_0 br_0 data_0 en vdd gnd sense_amp
Xsa_d1 bl_1 br_1 data_1 en vdd gnd sense_amp
Xsa_d2 bl_2 br_2 data_2 en vdd gnd sense_amp
Xsa_d3 bl_3 br_3 data_3 en vdd gnd sense_amp
Xsa_d4 bl_4 br_4 data_4 en vdd gnd sense_amp
Xsa_d5 bl_5 br_5 data_5 en vdd gnd sense_amp
Xsa_d6 bl_6 br_6 data_6 en vdd gnd sense_amp
Xsa_d7 bl_7 br_7 data_7 en vdd gnd sense_amp
Xsa_d8 bl_8 br_8 data_8 en vdd gnd sense_amp
Xsa_d9 bl_9 br_9 data_9 en vdd gnd sense_amp
Xsa_d10 bl_10 br_10 data_10 en vdd gnd sense_amp
Xsa_d11 bl_11 br_11 data_11 en vdd gnd sense_amp
Xsa_d12 bl_12 br_12 data_12 en vdd gnd sense_amp
Xsa_d13 bl_13 br_13 data_13 en vdd gnd sense_amp
Xsa_d14 bl_14 br_14 data_14 en vdd gnd sense_amp
Xsa_d15 bl_15 br_15 data_15 en vdd gnd sense_amp
Xsa_d16 bl_16 br_16 data_16 en vdd gnd sense_amp
Xsa_d17 bl_17 br_17 data_17 en vdd gnd sense_amp
Xsa_d18 bl_18 br_18 data_18 en vdd gnd sense_amp
Xsa_d19 bl_19 br_19 data_19 en vdd gnd sense_amp
Xsa_d20 bl_20 br_20 data_20 en vdd gnd sense_amp
Xsa_d21 bl_21 br_21 data_21 en vdd gnd sense_amp
Xsa_d22 bl_22 br_22 data_22 en vdd gnd sense_amp
Xsa_d23 bl_23 br_23 data_23 en vdd gnd sense_amp
Xsa_d24 bl_24 br_24 data_24 en vdd gnd sense_amp
Xsa_d25 bl_25 br_25 data_25 en vdd gnd sense_amp
Xsa_d26 bl_26 br_26 data_26 en vdd gnd sense_amp
Xsa_d27 bl_27 br_27 data_27 en vdd gnd sense_amp
Xsa_d28 bl_28 br_28 data_28 en vdd gnd sense_amp
Xsa_d29 bl_29 br_29 data_29 en vdd gnd sense_amp
Xsa_d30 bl_30 br_30 data_30 en vdd gnd sense_amp
Xsa_d31 bl_31 br_31 data_31 en vdd gnd sense_amp
.ENDS sense_amp_array

* ptx M{0} {1} n m=1 w=6.4u l=0.4u pd=13.60u ps=13.60u as=6.40p ad=6.40p

.SUBCKT single_level_column_mux bl br bl_out br_out sel gnd
* INOUT : bl 
* INOUT : br 
* INOUT : bl_out 
* INOUT : br_out 
* INOUT : sel 
* INOUT : gnd 
Mmux_tx1 bl sel bl_out gnd n m=1 w=6.4u l=0.4u pd=13.60u ps=13.60u as=6.40p ad=6.40p
Mmux_tx2 br sel br_out gnd n m=1 w=6.4u l=0.4u pd=13.60u ps=13.60u as=6.40p ad=6.40p
.ENDS single_level_column_mux

.SUBCKT single_level_column_mux_array bl_0 br_0 bl_1 br_1 bl_2 br_2 bl_3 br_3 bl_4 br_4 bl_5 br_5 bl_6 br_6 bl_7 br_7 bl_8 br_8 bl_9 br_9 bl_10 br_10 bl_11 br_11 bl_12 br_12 bl_13 br_13 bl_14 br_14 bl_15 br_15 bl_16 br_16 bl_17 br_17 bl_18 br_18 bl_19 br_19 bl_20 br_20 bl_21 br_21 bl_22 br_22 bl_23 br_23 bl_24 br_24 bl_25 br_25 bl_26 br_26 bl_27 br_27 bl_28 br_28 bl_29 br_29 bl_30 br_30 bl_31 br_31 bl_32 br_32 bl_33 br_33 bl_34 br_34 bl_35 br_35 bl_36 br_36 bl_37 br_37 bl_38 br_38 bl_39 br_39 bl_40 br_40 bl_41 br_41 bl_42 br_42 bl_43 br_43 bl_44 br_44 bl_45 br_45 bl_46 br_46 bl_47 br_47 bl_48 br_48 bl_49 br_49 bl_50 br_50 bl_51 br_51 bl_52 br_52 bl_53 br_53 bl_54 br_54 bl_55 br_55 bl_56 br_56 bl_57 br_57 bl_58 br_58 bl_59 br_59 bl_60 br_60 bl_61 br_61 bl_62 br_62 bl_63 br_63 sel_0 sel_1 bl_out_0 br_out_0 bl_out_1 br_out_1 bl_out_2 br_out_2 bl_out_3 br_out_3 bl_out_4 br_out_4 bl_out_5 br_out_5 bl_out_6 br_out_6 bl_out_7 br_out_7 bl_out_8 br_out_8 bl_out_9 br_out_9 bl_out_10 br_out_10 bl_out_11 br_out_11 bl_out_12 br_out_12 bl_out_13 br_out_13 bl_out_14 br_out_14 bl_out_15 br_out_15 bl_out_16 br_out_16 bl_out_17 br_out_17 bl_out_18 br_out_18 bl_out_19 br_out_19 bl_out_20 br_out_20 bl_out_21 br_out_21 bl_out_22 br_out_22 bl_out_23 br_out_23 bl_out_24 br_out_24 bl_out_25 br_out_25 bl_out_26 br_out_26 bl_out_27 br_out_27 bl_out_28 br_out_28 bl_out_29 br_out_29 bl_out_30 br_out_30 bl_out_31 br_out_31 gnd
* INOUT : bl_0 
* INOUT : br_0 
* INOUT : bl_1 
* INOUT : br_1 
* INOUT : bl_2 
* INOUT : br_2 
* INOUT : bl_3 
* INOUT : br_3 
* INOUT : bl_4 
* INOUT : br_4 
* INOUT : bl_5 
* INOUT : br_5 
* INOUT : bl_6 
* INOUT : br_6 
* INOUT : bl_7 
* INOUT : br_7 
* INOUT : bl_8 
* INOUT : br_8 
* INOUT : bl_9 
* INOUT : br_9 
* INOUT : bl_10 
* INOUT : br_10 
* INOUT : bl_11 
* INOUT : br_11 
* INOUT : bl_12 
* INOUT : br_12 
* INOUT : bl_13 
* INOUT : br_13 
* INOUT : bl_14 
* INOUT : br_14 
* INOUT : bl_15 
* INOUT : br_15 
* INOUT : bl_16 
* INOUT : br_16 
* INOUT : bl_17 
* INOUT : br_17 
* INOUT : bl_18 
* INOUT : br_18 
* INOUT : bl_19 
* INOUT : br_19 
* INOUT : bl_20 
* INOUT : br_20 
* INOUT : bl_21 
* INOUT : br_21 
* INOUT : bl_22 
* INOUT : br_22 
* INOUT : bl_23 
* INOUT : br_23 
* INOUT : bl_24 
* INOUT : br_24 
* INOUT : bl_25 
* INOUT : br_25 
* INOUT : bl_26 
* INOUT : br_26 
* INOUT : bl_27 
* INOUT : br_27 
* INOUT : bl_28 
* INOUT : br_28 
* INOUT : bl_29 
* INOUT : br_29 
* INOUT : bl_30 
* INOUT : br_30 
* INOUT : bl_31 
* INOUT : br_31 
* INOUT : bl_32 
* INOUT : br_32 
* INOUT : bl_33 
* INOUT : br_33 
* INOUT : bl_34 
* INOUT : br_34 
* INOUT : bl_35 
* INOUT : br_35 
* INOUT : bl_36 
* INOUT : br_36 
* INOUT : bl_37 
* INOUT : br_37 
* INOUT : bl_38 
* INOUT : br_38 
* INOUT : bl_39 
* INOUT : br_39 
* INOUT : bl_40 
* INOUT : br_40 
* INOUT : bl_41 
* INOUT : br_41 
* INOUT : bl_42 
* INOUT : br_42 
* INOUT : bl_43 
* INOUT : br_43 
* INOUT : bl_44 
* INOUT : br_44 
* INOUT : bl_45 
* INOUT : br_45 
* INOUT : bl_46 
* INOUT : br_46 
* INOUT : bl_47 
* INOUT : br_47 
* INOUT : bl_48 
* INOUT : br_48 
* INOUT : bl_49 
* INOUT : br_49 
* INOUT : bl_50 
* INOUT : br_50 
* INOUT : bl_51 
* INOUT : br_51 
* INOUT : bl_52 
* INOUT : br_52 
* INOUT : bl_53 
* INOUT : br_53 
* INOUT : bl_54 
* INOUT : br_54 
* INOUT : bl_55 
* INOUT : br_55 
* INOUT : bl_56 
* INOUT : br_56 
* INOUT : bl_57 
* INOUT : br_57 
* INOUT : bl_58 
* INOUT : br_58 
* INOUT : bl_59 
* INOUT : br_59 
* INOUT : bl_60 
* INOUT : br_60 
* INOUT : bl_61 
* INOUT : br_61 
* INOUT : bl_62 
* INOUT : br_62 
* INOUT : bl_63 
* INOUT : br_63 
* INOUT : sel_0 
* INOUT : sel_1 
* INOUT : bl_out_0 
* INOUT : br_out_0 
* INOUT : bl_out_1 
* INOUT : br_out_1 
* INOUT : bl_out_2 
* INOUT : br_out_2 
* INOUT : bl_out_3 
* INOUT : br_out_3 
* INOUT : bl_out_4 
* INOUT : br_out_4 
* INOUT : bl_out_5 
* INOUT : br_out_5 
* INOUT : bl_out_6 
* INOUT : br_out_6 
* INOUT : bl_out_7 
* INOUT : br_out_7 
* INOUT : bl_out_8 
* INOUT : br_out_8 
* INOUT : bl_out_9 
* INOUT : br_out_9 
* INOUT : bl_out_10 
* INOUT : br_out_10 
* INOUT : bl_out_11 
* INOUT : br_out_11 
* INOUT : bl_out_12 
* INOUT : br_out_12 
* INOUT : bl_out_13 
* INOUT : br_out_13 
* INOUT : bl_out_14 
* INOUT : br_out_14 
* INOUT : bl_out_15 
* INOUT : br_out_15 
* INOUT : bl_out_16 
* INOUT : br_out_16 
* INOUT : bl_out_17 
* INOUT : br_out_17 
* INOUT : bl_out_18 
* INOUT : br_out_18 
* INOUT : bl_out_19 
* INOUT : br_out_19 
* INOUT : bl_out_20 
* INOUT : br_out_20 
* INOUT : bl_out_21 
* INOUT : br_out_21 
* INOUT : bl_out_22 
* INOUT : br_out_22 
* INOUT : bl_out_23 
* INOUT : br_out_23 
* INOUT : bl_out_24 
* INOUT : br_out_24 
* INOUT : bl_out_25 
* INOUT : br_out_25 
* INOUT : bl_out_26 
* INOUT : br_out_26 
* INOUT : bl_out_27 
* INOUT : br_out_27 
* INOUT : bl_out_28 
* INOUT : br_out_28 
* INOUT : bl_out_29 
* INOUT : br_out_29 
* INOUT : bl_out_30 
* INOUT : br_out_30 
* INOUT : bl_out_31 
* INOUT : br_out_31 
* INOUT : gnd 
* cols: 64 word_size: 32 bl: bl br: br
XXMUX0 bl_0 br_0 bl_out_0 br_out_0 sel_0 gnd single_level_column_mux
XXMUX1 bl_1 br_1 bl_out_0 br_out_0 sel_1 gnd single_level_column_mux
XXMUX2 bl_2 br_2 bl_out_1 br_out_1 sel_0 gnd single_level_column_mux
XXMUX3 bl_3 br_3 bl_out_1 br_out_1 sel_1 gnd single_level_column_mux
XXMUX4 bl_4 br_4 bl_out_2 br_out_2 sel_0 gnd single_level_column_mux
XXMUX5 bl_5 br_5 bl_out_2 br_out_2 sel_1 gnd single_level_column_mux
XXMUX6 bl_6 br_6 bl_out_3 br_out_3 sel_0 gnd single_level_column_mux
XXMUX7 bl_7 br_7 bl_out_3 br_out_3 sel_1 gnd single_level_column_mux
XXMUX8 bl_8 br_8 bl_out_4 br_out_4 sel_0 gnd single_level_column_mux
XXMUX9 bl_9 br_9 bl_out_4 br_out_4 sel_1 gnd single_level_column_mux
XXMUX10 bl_10 br_10 bl_out_5 br_out_5 sel_0 gnd single_level_column_mux
XXMUX11 bl_11 br_11 bl_out_5 br_out_5 sel_1 gnd single_level_column_mux
XXMUX12 bl_12 br_12 bl_out_6 br_out_6 sel_0 gnd single_level_column_mux
XXMUX13 bl_13 br_13 bl_out_6 br_out_6 sel_1 gnd single_level_column_mux
XXMUX14 bl_14 br_14 bl_out_7 br_out_7 sel_0 gnd single_level_column_mux
XXMUX15 bl_15 br_15 bl_out_7 br_out_7 sel_1 gnd single_level_column_mux
XXMUX16 bl_16 br_16 bl_out_8 br_out_8 sel_0 gnd single_level_column_mux
XXMUX17 bl_17 br_17 bl_out_8 br_out_8 sel_1 gnd single_level_column_mux
XXMUX18 bl_18 br_18 bl_out_9 br_out_9 sel_0 gnd single_level_column_mux
XXMUX19 bl_19 br_19 bl_out_9 br_out_9 sel_1 gnd single_level_column_mux
XXMUX20 bl_20 br_20 bl_out_10 br_out_10 sel_0 gnd single_level_column_mux
XXMUX21 bl_21 br_21 bl_out_10 br_out_10 sel_1 gnd single_level_column_mux
XXMUX22 bl_22 br_22 bl_out_11 br_out_11 sel_0 gnd single_level_column_mux
XXMUX23 bl_23 br_23 bl_out_11 br_out_11 sel_1 gnd single_level_column_mux
XXMUX24 bl_24 br_24 bl_out_12 br_out_12 sel_0 gnd single_level_column_mux
XXMUX25 bl_25 br_25 bl_out_12 br_out_12 sel_1 gnd single_level_column_mux
XXMUX26 bl_26 br_26 bl_out_13 br_out_13 sel_0 gnd single_level_column_mux
XXMUX27 bl_27 br_27 bl_out_13 br_out_13 sel_1 gnd single_level_column_mux
XXMUX28 bl_28 br_28 bl_out_14 br_out_14 sel_0 gnd single_level_column_mux
XXMUX29 bl_29 br_29 bl_out_14 br_out_14 sel_1 gnd single_level_column_mux
XXMUX30 bl_30 br_30 bl_out_15 br_out_15 sel_0 gnd single_level_column_mux
XXMUX31 bl_31 br_31 bl_out_15 br_out_15 sel_1 gnd single_level_column_mux
XXMUX32 bl_32 br_32 bl_out_16 br_out_16 sel_0 gnd single_level_column_mux
XXMUX33 bl_33 br_33 bl_out_16 br_out_16 sel_1 gnd single_level_column_mux
XXMUX34 bl_34 br_34 bl_out_17 br_out_17 sel_0 gnd single_level_column_mux
XXMUX35 bl_35 br_35 bl_out_17 br_out_17 sel_1 gnd single_level_column_mux
XXMUX36 bl_36 br_36 bl_out_18 br_out_18 sel_0 gnd single_level_column_mux
XXMUX37 bl_37 br_37 bl_out_18 br_out_18 sel_1 gnd single_level_column_mux
XXMUX38 bl_38 br_38 bl_out_19 br_out_19 sel_0 gnd single_level_column_mux
XXMUX39 bl_39 br_39 bl_out_19 br_out_19 sel_1 gnd single_level_column_mux
XXMUX40 bl_40 br_40 bl_out_20 br_out_20 sel_0 gnd single_level_column_mux
XXMUX41 bl_41 br_41 bl_out_20 br_out_20 sel_1 gnd single_level_column_mux
XXMUX42 bl_42 br_42 bl_out_21 br_out_21 sel_0 gnd single_level_column_mux
XXMUX43 bl_43 br_43 bl_out_21 br_out_21 sel_1 gnd single_level_column_mux
XXMUX44 bl_44 br_44 bl_out_22 br_out_22 sel_0 gnd single_level_column_mux
XXMUX45 bl_45 br_45 bl_out_22 br_out_22 sel_1 gnd single_level_column_mux
XXMUX46 bl_46 br_46 bl_out_23 br_out_23 sel_0 gnd single_level_column_mux
XXMUX47 bl_47 br_47 bl_out_23 br_out_23 sel_1 gnd single_level_column_mux
XXMUX48 bl_48 br_48 bl_out_24 br_out_24 sel_0 gnd single_level_column_mux
XXMUX49 bl_49 br_49 bl_out_24 br_out_24 sel_1 gnd single_level_column_mux
XXMUX50 bl_50 br_50 bl_out_25 br_out_25 sel_0 gnd single_level_column_mux
XXMUX51 bl_51 br_51 bl_out_25 br_out_25 sel_1 gnd single_level_column_mux
XXMUX52 bl_52 br_52 bl_out_26 br_out_26 sel_0 gnd single_level_column_mux
XXMUX53 bl_53 br_53 bl_out_26 br_out_26 sel_1 gnd single_level_column_mux
XXMUX54 bl_54 br_54 bl_out_27 br_out_27 sel_0 gnd single_level_column_mux
XXMUX55 bl_55 br_55 bl_out_27 br_out_27 sel_1 gnd single_level_column_mux
XXMUX56 bl_56 br_56 bl_out_28 br_out_28 sel_0 gnd single_level_column_mux
XXMUX57 bl_57 br_57 bl_out_28 br_out_28 sel_1 gnd single_level_column_mux
XXMUX58 bl_58 br_58 bl_out_29 br_out_29 sel_0 gnd single_level_column_mux
XXMUX59 bl_59 br_59 bl_out_29 br_out_29 sel_1 gnd single_level_column_mux
XXMUX60 bl_60 br_60 bl_out_30 br_out_30 sel_0 gnd single_level_column_mux
XXMUX61 bl_61 br_61 bl_out_30 br_out_30 sel_1 gnd single_level_column_mux
XXMUX62 bl_62 br_62 bl_out_31 br_out_31 sel_0 gnd single_level_column_mux
XXMUX63 bl_63 br_63 bl_out_31 br_out_31 sel_1 gnd single_level_column_mux
.ENDS single_level_column_mux_array
*********************** Write_Driver ******************************
.SUBCKT write_driver din bl br en vdd gnd

**** Inverter to conver Data_in to data_in_bar ******
* din_bar = inv(din)
M_1 din_bar din gnd gnd n W=0.8u L=0.4u
M_2 din_bar din vdd vdd p W=1.4u L=0.4u

**** 2input nand gate follwed by inverter to drive BL ******
* din_bar_gated = nand(en, din)
M_3 din_bar_gated en net_7 gnd n W=1.4u L=0.4u
M_4 net_7 din gnd gnd n W=1.4u L=0.4u
M_5 din_bar_gated en vdd vdd p W=1.4u L=0.4u
M_6 din_bar_gated din vdd vdd p W=1.4u L=0.4u
* din_bar_gated_bar = inv(din_bar_gated)
M_7 din_bar_gated_bar din_bar_gated vdd vdd p W=1.4u L=0.4u
M_8 din_bar_gated_bar din_bar_gated gnd gnd n W=0.8u L=0.4u

**** 2input nand gate follwed by inverter to drive BR******
* din_gated = nand(en, din_bar)
M_9 din_gated en vdd vdd p W=1.4u L=0.4u
M_10 din_gated en net_8 gnd n W=1.4u L=0.4u
M_11 net_8 din_bar gnd gnd n W=1.4u L=0.4u
M_12 din_gated din_bar vdd vdd p W=1.4u L=0.4u
* din_gated_bar = inv(din_gated)
M_13 din_gated_bar din_gated vdd vdd p W=1.4u L=0.4u
M_14 din_gated_bar din_gated gnd gnd n W=0.8u L=0.4u

************************************************
* pull down with en enable
M_15 bl din_gated_bar gnd gnd n W=2.4u L=0.4u
M_16 br din_bar_gated_bar gnd gnd n W=2.4u L=0.4u



.ENDS   $ write_driver

.SUBCKT write_driver_array data_0 data_1 data_2 data_3 data_4 data_5 data_6 data_7 data_8 data_9 data_10 data_11 data_12 data_13 data_14 data_15 data_16 data_17 data_18 data_19 data_20 data_21 data_22 data_23 data_24 data_25 data_26 data_27 data_28 data_29 data_30 data_31 bl_0 br_0 bl_1 br_1 bl_2 br_2 bl_3 br_3 bl_4 br_4 bl_5 br_5 bl_6 br_6 bl_7 br_7 bl_8 br_8 bl_9 br_9 bl_10 br_10 bl_11 br_11 bl_12 br_12 bl_13 br_13 bl_14 br_14 bl_15 br_15 bl_16 br_16 bl_17 br_17 bl_18 br_18 bl_19 br_19 bl_20 br_20 bl_21 br_21 bl_22 br_22 bl_23 br_23 bl_24 br_24 bl_25 br_25 bl_26 br_26 bl_27 br_27 bl_28 br_28 bl_29 br_29 bl_30 br_30 bl_31 br_31 en vdd gnd
* INPUT : data_0 
* INPUT : data_1 
* INPUT : data_2 
* INPUT : data_3 
* INPUT : data_4 
* INPUT : data_5 
* INPUT : data_6 
* INPUT : data_7 
* INPUT : data_8 
* INPUT : data_9 
* INPUT : data_10 
* INPUT : data_11 
* INPUT : data_12 
* INPUT : data_13 
* INPUT : data_14 
* INPUT : data_15 
* INPUT : data_16 
* INPUT : data_17 
* INPUT : data_18 
* INPUT : data_19 
* INPUT : data_20 
* INPUT : data_21 
* INPUT : data_22 
* INPUT : data_23 
* INPUT : data_24 
* INPUT : data_25 
* INPUT : data_26 
* INPUT : data_27 
* INPUT : data_28 
* INPUT : data_29 
* INPUT : data_30 
* INPUT : data_31 
* OUTPUT: bl_0 
* OUTPUT: br_0 
* OUTPUT: bl_1 
* OUTPUT: br_1 
* OUTPUT: bl_2 
* OUTPUT: br_2 
* OUTPUT: bl_3 
* OUTPUT: br_3 
* OUTPUT: bl_4 
* OUTPUT: br_4 
* OUTPUT: bl_5 
* OUTPUT: br_5 
* OUTPUT: bl_6 
* OUTPUT: br_6 
* OUTPUT: bl_7 
* OUTPUT: br_7 
* OUTPUT: bl_8 
* OUTPUT: br_8 
* OUTPUT: bl_9 
* OUTPUT: br_9 
* OUTPUT: bl_10 
* OUTPUT: br_10 
* OUTPUT: bl_11 
* OUTPUT: br_11 
* OUTPUT: bl_12 
* OUTPUT: br_12 
* OUTPUT: bl_13 
* OUTPUT: br_13 
* OUTPUT: bl_14 
* OUTPUT: br_14 
* OUTPUT: bl_15 
* OUTPUT: br_15 
* OUTPUT: bl_16 
* OUTPUT: br_16 
* OUTPUT: bl_17 
* OUTPUT: br_17 
* OUTPUT: bl_18 
* OUTPUT: br_18 
* OUTPUT: bl_19 
* OUTPUT: br_19 
* OUTPUT: bl_20 
* OUTPUT: br_20 
* OUTPUT: bl_21 
* OUTPUT: br_21 
* OUTPUT: bl_22 
* OUTPUT: br_22 
* OUTPUT: bl_23 
* OUTPUT: br_23 
* OUTPUT: bl_24 
* OUTPUT: br_24 
* OUTPUT: bl_25 