* NGSPICE file created from sram_2_16_scn4m_subm.ext - technology: scmos

.SUBCKT sram_2_16_scn4m_subm din0[0] din0[1] addr0[0] addr0[1] addr0[2] addr0[3] csb0 web0 clk0 dout0[0] dout0[1] vdd gnd
+ bitcell_Q_b0_r0_c0 bitcell_Q_bar_b0_r0_c0 bitcell_Q_b0_r0_c1 bitcell_Q_bar_b0_r0_c1 bitcell_Q_b0_r1_c0 bitcell_Q_bar_b0_r1_c0 bitcell_Q_b0_r1_c1 bitcell_Q_bar_b0_r1_c1 bitcell_Q_b0_r2_c0 bitcell_Q_bar_b0_r2_c0 bitcell_Q_b0_r2_c1 bitcell_Q_bar_b0_r2_c1 bitcell_Q_b0_r3_c0 bitcell_Q_bar_b0_r3_c0 bitcell_Q_b0_r3_c1 bitcell_Q_bar_b0_r3_c1 bitcell_Q_b0_r4_c0 bitcell_Q_bar_b0_r4_c0 bitcell_Q_b0_r4_c1 bitcell_Q_bar_b0_r4_c1 bitcell_Q_b0_r5_c0 bitcell_Q_bar_b0_r5_c0 bitcell_Q_b0_r5_c1 bitcell_Q_bar_b0_r5_c1 bitcell_Q_b0_r6_c0 bitcell_Q_bar_b0_r6_c0 bitcell_Q_b0_r6_c1 bitcell_Q_bar_b0_r6_c1 bitcell_Q_b0_r7_c0 bitcell_Q_bar_b0_r7_c0 bitcell_Q_b0_r7_c1 bitcell_Q_bar_b0_r7_c1 bitcell_Q_b0_r8_c0 bitcell_Q_bar_b0_r8_c0 bitcell_Q_b0_r8_c1 bitcell_Q_bar_b0_r8_c1 bitcell_Q_b0_r9_c0 bitcell_Q_bar_b0_r9_c0 bitcell_Q_b0_r9_c1 bitcell_Q_bar_b0_r9_c1 bitcell_Q_b0_r10_c0 bitcell_Q_bar_b0_r10_c0 bitcell_Q_b0_r10_c1 bitcell_Q_bar_b0_r10_c1 bitcell_Q_b0_r11_c0 bitcell_Q_bar_b0_r11_c0 bitcell_Q_b0_r11_c1 bitcell_Q_bar_b0_r11_c1 bitcell_Q_b0_r12_c0 bitcell_Q_bar_b0_r12_c0 bitcell_Q_b0_r12_c1 bitcell_Q_bar_b0_r12_c1 bitcell_Q_b0_r13_c0 bitcell_Q_bar_b0_r13_c0 bitcell_Q_b0_r13_c1 bitcell_Q_bar_b0_r13_c1 bitcell_Q_b0_r14_c0 bitcell_Q_bar_b0_r14_c0 bitcell_Q_b0_r14_c1 bitcell_Q_bar_b0_r14_c1 bitcell_Q_b0_r15_c0 bitcell_Q_bar_b0_r15_c0 bitcell_Q_b0_r15_c1 bitcell_Q_bar_b0_r15_c1 bl0_0 br0_0 bl0_1 br0_1 
+ s_en0
M1000 vdd clk_buf0 data_dff_0/dff_0/a_24_24# vdd p w=8u l=0.4u
+  ad=790.427p pd=2402.65u as=8p ps=18u
M1001 data_dff_0/dff_0/a_280_24# data_dff_0/dff_0/a_24_24# data_dff_0/dff_0/a_260_296# vdd p w=4u l=0.4u
+  ad=6p pd=11.2u as=2.4p ps=9.2u
M1002 bank_0/din0_1 data_dff_0/dff_0/a_280_24# vdd vdd p w=8u l=0.4u
+  ad=8p pd=18u as=0p ps=0u
M1003 data_dff_0/dff_0/a_260_24# data_dff_0/dff_0/a_152_16# gnd gnd n w=2u l=0.4u
+  ad=1.2p pd=5.2u as=682.328p ps=1855.75u
M1004 data_dff_0/dff_0/a_84_296# din0[1] vdd vdd p w=4u l=0.4u
+  ad=3.2p pd=9.6u as=0p ps=0u
M1005 data_dff_0/dff_0/a_84_24# din0[1] gnd gnd n w=2u l=0.4u
+  ad=1.2p pd=5.2u as=0p ps=0u
M1006 gnd bank_0/din0_1 data_dff_0/dff_0/a_320_24# gnd n w=2u l=0.4u
+  ad=0p pd=0u as=1.2p ps=5.2u
M1007 gnd data_dff_0/dff_0/a_152_16# data_dff_0/dff_0/a_140_24# gnd n w=2u l=0.4u
+  ad=0p pd=0u as=1.2p ps=5.2u
M1008 data_dff_0/dff_0/a_320_336# clk_buf0 data_dff_0/dff_0/a_280_24# vdd p w=2u l=0.4u
+  ad=1.2p pd=5.2u as=0p ps=0u
M1009 data_dff_0/dff_0/a_152_16# data_dff_0/dff_0/a_104_24# vdd vdd p w=4u l=0.4u
+  ad=4p pd=10u as=0p ps=0u
M1010 data_dff_0/dff_0/a_140_296# data_dff_0/dff_0/a_24_24# data_dff_0/dff_0/a_104_24# vdd p w=4u l=0.4u
+  ad=3.2p pd=9.6u as=4.8p ps=10.4u
M1011 data_dff_0/dff_0/a_280_24# clk_buf0 data_dff_0/dff_0/a_260_24# gnd n w=2u l=0.4u
+  ad=3.2p pd=7.2u as=0p ps=0u
M1012 gnd clk_buf0 data_dff_0/dff_0/a_24_24# gnd n w=4u l=0.4u
+  ad=0p pd=0u as=4p ps=10u
M1013 data_dff_0/dff_0/a_260_296# data_dff_0/dff_0/a_152_16# vdd vdd p w=4u l=0.4u
+  ad=0p pd=0u as=0p ps=0u
M1014 data_dff_0/dff_0/a_152_16# data_dff_0/dff_0/a_104_24# gnd gnd n w=2u l=0.4u
+  ad=2p pd=6u as=0p ps=0u
M1015 data_dff_0/dff_0/a_104_24# data_dff_0/dff_0/a_24_24# data_dff_0/dff_0/a_84_24# gnd n w=2u l=0.4u
+  ad=2.8p pd=6.8u as=0p ps=0u
M1016 data_dff_0/dff_0/a_320_24# data_dff_0/dff_0/a_24_24# data_dff_0/dff_0/a_280_24# gnd n w=2u l=0.4u
+  ad=0p pd=0u as=0p ps=0u
M1017 vdd bank_0/din0_1 data_dff_0/dff_0/a_320_336# vdd p w=2u l=0.4u
+  ad=0p pd=0u as=0p ps=0u
M1018 bank_0/din0_1 data_dff_0/dff_0/a_280_24# gnd gnd n w=4u l=0.4u
+  ad=4p pd=10u as=0p ps=0u
M1019 vdd data_dff_0/dff_0/a_152_16# data_dff_0/dff_0/a_140_296# vdd p w=4u l=0.4u
+  ad=0p pd=0u as=0p ps=0u
M1020 data_dff_0/dff_0/a_140_24# clk_buf0 data_dff_0/dff_0/a_104_24# gnd n w=2u l=0.4u
+  ad=0p pd=0u as=0p ps=0u
M1021 data_dff_0/dff_0/a_104_24# clk_buf0 data_dff_0/dff_0/a_84_296# vdd p w=4u l=0.4u
+  ad=0p pd=0u as=0p ps=0u
M1022 vdd clk_buf0 data_dff_0/dff_1/a_24_24# vdd p w=8u l=0.4u
+  ad=0p pd=0u as=8p ps=18u
M1023 data_dff_0/dff_1/a_280_24# data_dff_0/dff_1/a_24_24# data_dff_0/dff_1/a_260_296# vdd p w=4u l=0.4u
+  ad=6p pd=11.2u as=2.4p ps=9.2u
M1024 bank_0/din0_0 data_dff_0/dff_1/a_280_24# vdd vdd p w=8u l=0.4u
+  ad=8p pd=18u as=0p ps=0u
M1025 data_dff_0/dff_1/a_260_24# data_dff_0/dff_1/a_152_16# gnd gnd n w=2u l=0.4u
+  ad=1.2p pd=5.2u as=0p ps=0u
M1026 data_dff_0/dff_1/a_84_296# din0[0] vdd vdd p w=4u l=0.4u
+  ad=3.2p pd=9.6u as=0p ps=0u
M1027 data_dff_0/dff_1/a_84_24# din0[0] gnd gnd n w=2u l=0.4u
+  ad=1.2p pd=5.2u as=0p ps=0u
M1028 gnd bank_0/din0_0 data_dff_0/dff_1/a_320_24# gnd n w=2u l=0.4u
+  ad=0p pd=0u as=1.2p ps=5.2u
M1029 gnd data_dff_0/dff_1/a_152_16# data_dff_0/dff_1/a_140_24# gnd n w=2u l=0.4u
+  ad=0p pd=0u as=1.2p ps=5.2u
M1030 data_dff_0/dff_1/a_320_336# clk_buf0 data_dff_0/dff_1/a_280_24# vdd p w=2u l=0.4u
+  ad=1.2p pd=5.2u as=0p ps=0u
M1031 data_dff_0/dff_1/a_152_16# data_dff_0/dff_1/a_104_24# vdd vdd p w=4u l=0.4u
+  ad=4p pd=10u as=0p ps=0u
M1032 data_dff_0/dff_1/a_140_296# data_dff_0/dff_1/a_24_24# data_dff_0/dff_1/a_104_24# vdd p w=4u l=0.4u
+  ad=3.2p pd=9.6u as=4.8p ps=10.4u
M1033 data_dff_0/dff_1/a_280_24# clk_buf0 data_dff_0/dff_1/a_260_24# gnd n w=2u l=0.4u
+  ad=3.2p pd=7.2u as=0p ps=0u
M1034 gnd clk_buf0 data_dff_0/dff_1/a_24_24# gnd n w=4u l=0.4u
+  ad=0p pd=0u as=4p ps=10u
M1035 data_dff_0/dff_1/a_260_296# data_dff_0/dff_1/a_152_16# vdd vdd p w=4u l=0.4u
+  ad=0p pd=0u as=0p ps=0u
M1036 data_dff_0/dff_1/a_152_16# data_dff_0/dff_1/a_104_24# gnd gnd n w=2u l=0.4u
+  ad=2p pd=6u as=0p ps=0u
M1037 data_dff_0/dff_1/a_104_24# data_dff_0/dff_1/a_24_24# data_dff_0/dff_1/a_84_24# gnd n w=2u l=0.4u
+  ad=2.8p pd=6.8u as=0p ps=0u
M1038 data_dff_0/dff_1/a_320_24# data_dff_0/dff_1/a_24_24# data_dff_0/dff_1/a_280_24# gnd n w=2u l=0.4u
+  ad=0p pd=0u as=0p ps=0u
M1039 vdd bank_0/din0_0 data_dff_0/dff_1/a_320_336# vdd p w=2u l=0.4u
+  ad=0p pd=0u as=0p ps=0u
M1040 bank_0/din0_0 data_dff_0/dff_1/a_280_24# gnd gnd n w=4u l=0.4u
+  ad=4p pd=10u as=0p ps=0u
M1041 vdd data_dff_0/dff_1/a_152_16# data_dff_0/dff_1/a_140_296# vdd p w=4u l=0.4u
+  ad=0p pd=0u as=0p ps=0u
M1042 data_dff_0/dff_1/a_140_24# clk_buf0 data_dff_0/dff_1/a_104_24# gnd n w=2u l=0.4u
+  ad=0p pd=0u as=0p ps=0u
M1043 data_dff_0/dff_1/a_104_24# clk_buf0 data_dff_0/dff_1/a_84_296# vdd p w=4u l=0.4u
+  ad=0p pd=0u as=0p ps=0u
M1044 control_logic_rw_0/pand3_0_0/pinv_8_0/A control_logic_rw_0/pand3_1_0/B vdd vdd p w=1.6u l=0.4u
+  ad=4.8075p pd=11u as=0p ps=0u
M1045 vdd control_logic_rw_0/pinv_5_0/Z control_logic_rw_0/pand3_0_0/pinv_8_0/A vdd p w=1.6u l=0.4u
+  ad=0p pd=0u as=0p ps=0u
M1046 control_logic_rw_0/pand3_0_0/pinv_8_0/A control_logic_rw_0/pand3_0_0/A vdd vdd p w=1.6u l=0.4u
+  ad=0p pd=0u as=0p ps=0u
M1047 control_logic_rw_0/pand3_0_0/pinv_8_0/A control_logic_rw_0/pand3_1_0/B control_logic_rw_0/pand3_0_0/pnand3_1_0/nmos_m1_w1_600_a_p_1/D gnd n w=1.6u l=0.4u
+  ad=1.6025p pd=5.25u as=1.9275p ps=5.75u
M1048 control_logic_rw_0/pand3_0_0/pnand3_1_0/nmos_m1_w1_600_a_p_1/D control_logic_rw_0/pinv_5_0/Z control_logic_rw_0/pand3_0_0/pnand3_1_0/nmos_m1_w1_600_a_p_2/D gnd n w=1.6u l=0.4u
+  ad=0p pd=0u as=1.9275p ps=5.75u
M1049 control_logic_rw_0/pand3_0_0/pnand3_1_0/nmos_m1_w1_600_a_p_2/D control_logic_rw_0/pand3_0_0/A gnd gnd n w=1.6u l=0.4u
+  ad=0p pd=0u as=0p ps=0u
M1050 w_en0 control_logic_rw_0/pand3_0_0/pinv_8_0/A vdd vdd p w=8u l=0.4u
+  ad=9.6025p pd=18.45u as=0p ps=0u
M1051 vdd control_logic_rw_0/pand3_0_0/pinv_8_0/A w_en0 vdd p w=8u l=0.4u
+  ad=0p pd=0u as=0p ps=0u
M1052 gnd control_logic_rw_0/pand3_0_0/pinv_8_0/A w_en0 gnd n w=4u l=0.4u
+  ad=0p pd=0u as=4.8025p ps=10.45u
M1053 w_en0 control_logic_rw_0/pand3_0_0/pinv_8_0/A gnd gnd n w=4u l=0.4u
+  ad=0p pd=0u as=0p ps=0u
M1054 control_logic_rw_0/pinv_5_0/Z control_logic_rw_0/pinv_5_0/A vdd vdd p w=1.6u l=0.4u
+  ad=1.6025p pd=5.25u as=0p ps=0u
M1055 control_logic_rw_0/pinv_5_0/Z control_logic_rw_0/pinv_5_0/A gnd gnd n w=0.8u l=0.4u
+  ad=0.8025p pd=3.65u as=0p ps=0u
M1056 control_logic_rw_0/pinv_5_1/Z clk_buf0 vdd vdd p w=1.6u l=0.4u
+  ad=1.6025p pd=5.25u as=0p ps=0u
M1057 control_logic_rw_0/pinv_5_1/Z clk_buf0 gnd gnd n w=0.8u l=0.4u
+  ad=0.8025p pd=3.65u as=0p ps=0u
M1058 control_logic_rw_0/pdriver_3_0/pinv_3_0/A control_logic_rw_0/pdriver_3_0/pinv_5_0/A vdd vdd p w=1.6u l=0.4u
+  ad=1.6025p pd=5.25u as=0p ps=0u
M1059 control_logic_rw_0/pdriver_3_0/pinv_3_0/A control_logic_rw_0/pdriver_3_0/pinv_5_0/A gnd gnd n w=0.8u l=0.4u
+  ad=0.8025p pd=3.65u as=0p ps=0u
M1060 control_logic_rw_0/pdriver_3_0/pinv_5_0/A control_logic_rw_0/pand3_1_0/B vdd vdd p w=1.6u l=0.4u
+  ad=1.6025p pd=5.25u as=0p ps=0u
M1061 control_logic_rw_0/pdriver_3_0/pinv_5_0/A control_logic_rw_0/pand3_1_0/B gnd gnd n w=0.8u l=0.4u
+  ad=0.8025p pd=3.65u as=0p ps=0u
M1062 control_logic_rw_0/pdriver_3_0/pinv_6_0/A control_logic_rw_0/pdriver_3_0/pinv_3_0/A vdd vdd p w=3.2u l=0.4u
+  ad=3.2025p pd=8.45u as=0p ps=0u
M1063 control_logic_rw_0/pdriver_3_0/pinv_6_0/A control_logic_rw_0/pdriver_3_0/pinv_3_0/A gnd gnd n w=1.6u l=0.4u
+  ad=1.6025p pd=5.25u as=0p ps=0u
M1064 wl_en0 control_logic_rw_0/pdriver_3_0/pinv_6_0/A vdd vdd p w=8u l=0.4u
+  ad=8.0025p pd=18.05u as=0p ps=0u
M1065 wl_en0 control_logic_rw_0/pdriver_3_0/pinv_6_0/A gnd gnd n w=4u l=0.4u
+  ad=4.0025p pd=10.05u as=0p ps=0u
M1066 control_logic_rw_0/pand2_0_0/pdriver_1_0/pinv_4_0/A control_logic_rw_0/pand2_0_0/pdriver_1_0/pinv_5_0/A vdd vdd p w=1.6u l=0.4u
+  ad=1.6025p pd=5.25u as=0p ps=0u
M1067 control_logic_rw_0/pand2_0_0/pdriver_1_0/pinv_4_0/A control_logic_rw_0/pand2_0_0/pdriver_1_0/pinv_5_0/A gnd gnd n w=0.8u l=0.4u
+  ad=0.8025p pd=3.65u as=0p ps=0u
M1068 control_logic_rw_0/pand2_0_0/pdriver_1_0/pinv_5_0/A control_logic_rw_0/pand2_0_0/pnand2_1_0/Z vdd vdd p w=1.6u l=0.4u
+  ad=1.6025p pd=5.25u as=0p ps=0u
M1069 control_logic_rw_0/pand2_0_0/pdriver_1_0/pinv_5_0/A control_logic_rw_0/pand2_0_0/pnand2_1_0/Z gnd gnd n w=0.8u l=0.4u
+  ad=0.8025p pd=3.65u as=0p ps=0u
M1070 control_logic_rw_0/pand2_0_0/Z control_logic_rw_0/pand2_0_0/pdriver_1_0/pinv_4_0/A gnd gnd n w=3.2u l=0.4u
+  ad=3.2025p pd=8.45u as=0p ps=0u
M1071 control_logic_rw_0/pand2_0_0/Z control_logic_rw_0/pand2_0_0/pdriver_1_0/pinv_4_0/A vdd vdd p w=6.4u l=0.4u
+  ad=6.4025p pd=14.85u as=0p ps=0u
M1072 vdd control_logic_rw_0/pand2_0_0/B control_logic_rw_0/pand2_0_0/pnand2_1_0/Z vdd p w=1.6u l=0.4u
+  ad=0p pd=0u as=3.205p ps=5.75u
M1073 control_logic_rw_0/pand2_0_0/pnand2_1_0/Z clk_buf0 vdd vdd p w=1.6u l=0.4u
+  ad=0p pd=0u as=0p ps=0u
M1074 control_logic_rw_0/pand2_0_0/pnand2_1_0/Z control_logic_rw_0/pand2_0_0/B control_logic_rw_0/pand2_0_0/pnand2_1_0/nmos_m1_w1_600_a_p_1/D gnd n w=1.6u l=0.4u
+  ad=1.6025p pd=5.25u as=1.9275p ps=5.75u
M1075 control_logic_rw_0/pand2_0_0/pnand2_1_0/nmos_m1_w1_600_a_p_1/D clk_buf0 gnd gnd n w=1.6u l=0.4u
+  ad=0p pd=0u as=0p ps=0u
M1076 control_logic_rw_0/pand2_0_1/pdriver_1_0/pinv_4_0/A control_logic_rw_0/pand2_0_1/pdriver_1_0/pinv_5_0/A vdd vdd p w=1.6u l=0.4u
+  ad=1.6025p pd=5.25u as=0p ps=0u
M1077 control_logic_rw_0/pand2_0_1/pdriver_1_0/pinv_4_0/A control_logic_rw_0/pand2_0_1/pdriver_1_0/pinv_5_0/A gnd gnd n w=0.8u l=0.4u
+  ad=0.8025p pd=3.65u as=0p ps=0u
M1078 control_logic_rw_0/pand2_0_1/pdriver_1_0/pinv_5_0/A control_logic_rw_0/pand2_0_1/pnand2_1_0/Z vdd vdd p w=1.6u l=0.4u
+  ad=1.6025p pd=5.25u as=0p ps=0u
M1079 control_logic_rw_0/pand2_0_1/pdriver_1_0/pinv_5_0/A control_logic_rw_0/pand2_0_1/pnand2_1_0/Z gnd gnd n w=0.8u l=0.4u
+  ad=0.8025p pd=3.65u as=0p ps=0u
M1080 control_logic_rw_0/pand3_1_0/B control_logic_rw_0/pand2_0_1/pdriver_1_0/pinv_4_0/A gnd gnd n w=3.2u l=0.4u
+  ad=3.2025p pd=8.45u as=0p ps=0u
M1081 control_logic_rw_0/pand3_1_0/B control_logic_rw_0/pand2_0_1/pdriver_1_0/pinv_4_0/A vdd vdd p w=6.4u l=0.4u
+  ad=6.4025p pd=14.85u as=0p ps=0u
M1082 vdd control_logic_rw_0/pinv_5_1/Z control_logic_rw_0/pand2_0_1/pnand2_1_0/Z vdd p w=1.6u l=0.4u
+  ad=0p pd=0u as=3.205p ps=5.75u
M1083 control_logic_rw_0/pand2_0_1/pnand2_1_0/Z control_logic_rw_0/pand2_0_0/B vdd vdd p w=1.6u l=0.4u
+  ad=0p pd=0u as=0p ps=0u
M1084 control_logic_rw_0/pand2_0_1/pnand2_1_0/Z control_logic_rw_0/pinv_5_1/Z control_logic_rw_0/pand2_0_1/pnand2_1_0/nmos_m1_w1_600_a_p_1/D gnd n w=1.6u l=0.4u
+  ad=1.6025p pd=5.25u as=1.9275p ps=5.75u
M1085 control_logic_rw_0/pand2_0_1/pnand2_1_0/nmos_m1_w1_600_a_p_1/D control_logic_rw_0/pand2_0_0/B gnd gnd n w=1.6u l=0.4u
+  ad=0p pd=0u as=0p ps=0u
M1086 s_en0 control_logic_rw_0/pand3_1_0/pinv_3_0/A vdd vdd p w=3.2u l=0.4u
+  ad=3.2025p pd=8.45u as=0p ps=0u
M1087 s_en0 control_logic_rw_0/pand3_1_0/pinv_3_0/A gnd gnd n w=1.6u l=0.4u
+  ad=1.6025p pd=5.25u as=0p ps=0u
M1088 control_logic_rw_0/pand3_1_0/pinv_3_0/A control_logic_rw_0/pand3_1_0/C vdd vdd p w=1.6u l=0.4u
+  ad=4.8075p pd=11u as=0p ps=0u
M1089 vdd control_logic_rw_0/pand3_1_0/B control_logic_rw_0/pand3_1_0/pinv_3_0/A vdd p w=1.6u l=0.4u
+  ad=0p pd=0u as=0p ps=0u
M1090 control_logic_rw_0/pand3_1_0/pinv_3_0/A control_logic_rw_0/pinv_5_0/A vdd vdd p w=1.6u l=0.4u
+  ad=0p pd=0u as=0p ps=0u
M1091 control_logic_rw_0/pand3_1_0/pinv_3_0/A control_logic_rw_0/pand3_1_0/C control_logic_rw_0/pand3_1_0/pnand3_1_0/nmos_m1_w1_600_a_p_1/D gnd n w=1.6u l=0.4u
+  ad=1.6025p pd=5.25u as=1.9275p ps=5.75u
M1092 control_logic_rw_0/pand3_1_0/pnand3_1_0/nmos_m1_w1_600_a_p_1/D control_logic_rw_0/pand3_1_0/B control_logic_rw_0/pand3_1_0/pnand3_1_0/nmos_m1_w1_600_a_p_2/D gnd n w=1.6u l=0.4u
+  ad=0p pd=0u as=1.9275p ps=5.75u
M1093 control_logic_rw_0/pand3_1_0/pnand3_1_0/nmos_m1_w1_600_a_p_2/D control_logic_rw_0/pinv_5_0/A gnd gnd n w=1.6u l=0.4u
+  ad=0p pd=0u as=0p ps=0u
M1094 p_en_bar0 control_logic_rw_0/pdriver_4_0/pinv_5_0/A vdd vdd p w=1.6u l=0.4u
+  ad=1.6025p pd=5.25u as=0p ps=0u
M1095 p_en_bar0 control_logic_rw_0/pdriver_4_0/pinv_5_0/A gnd gnd n w=0.8u l=0.4u
+  ad=0.8025p pd=3.65u as=0p ps=0u
M1096 control_logic_rw_0/pdriver_4_0/pinv_5_0/A control_logic_rw_0/pnand2_1_0/Z vdd vdd p w=1.6u l=0.4u
+  ad=1.6025p pd=5.25u as=0p ps=0u
M1097 control_logic_rw_0/pdriver_4_0/pinv_5_0/A control_logic_rw_0/pnand2_1_0/Z gnd gnd n w=0.8u l=0.4u
+  ad=0.8025p pd=3.65u as=0p ps=0u
M1098 vdd clk_buf0 control_logic_rw_0/dff_buf_array_0_0/dff_buf_0_1/dff_0/a_24_24# vdd p w=8u l=0.4u
+  ad=0p pd=0u as=8p ps=18u
M1099 control_logic_rw_0/dff_buf_array_0_0/dff_buf_0_1/dff_0/a_280_24# control_logic_rw_0/dff_buf_array_0_0/dff_buf_0_1/dff_0/a_24_24# control_logic_rw_0/dff_buf_array_0_0/dff_buf_0_1/dff_0/a_260_296# vdd p w=4u l=0.4u
+  ad=6p pd=11.2u as=2.4p ps=9.2u
M1100 control_logic_rw_0/dff_buf_array_0_0/dff_buf_0_1/dff_0/Q control_logic_rw_0/dff_buf_array_0_0/dff_buf_0_1/dff_0/a_280_24# vdd vdd p w=8u l=0.4u
+  ad=8p pd=18u as=0p ps=0u
M1101 control_logic_rw_0/dff_buf_array_0_0/dff_buf_0_1/dff_0/a_260_24# control_logic_rw_0/dff_buf_array_0_0/dff_buf_0_1/dff_0/a_152_16# gnd gnd n w=2u l=0.4u
+  ad=1.2p pd=5.2u as=0p ps=0u
M1102 control_logic_rw_0/dff_buf_array_0_0/dff_buf_0_1/dff_0/a_84_296# csb0 vdd vdd p w=4u l=0.4u
+  ad=3.2p pd=9.6u as=0p ps=0u
M1103 control_logic_rw_0/dff_buf_array_0_0/dff_buf_0_1/dff_0/a_84_24# csb0 gnd gnd n w=2u l=0.4u
+  ad=1.2p pd=5.2u as=0p ps=0u
M1104 gnd control_logic_rw_0/dff_buf_array_0_0/dff_buf_0_1/dff_0/Q control_logic_rw_0/dff_buf_array_0_0/dff_buf_0_1/dff_0/a_320_24# gnd n w=2u l=0.4u
+  ad=0p pd=0u as=1.2p ps=5.2u
M1105 gnd control_logic_rw_0/dff_buf_array_0_0/dff_buf_0_1/dff_0/a_152_16# control_logic_rw_0/dff_buf_array_0_0/dff_buf_0_1/dff_0/a_140_24# gnd n w=2u l=0.4u
+  ad=0p pd=0u as=1.2p ps=5.2u
M1106 control_logic_rw_0/dff_buf_array_0_0/dff_buf_0_1/dff_0/a_320_336# clk_buf0 control_logic_rw_0/dff_buf_array_0_0/dff_buf_0_1/dff_0/a_280_24# vdd p w=2u l=0.4u
+  ad=1.2p pd=5.2u as=0p ps=0u
M1107 control_logic_rw_0/dff_buf_array_0_0/dff_buf_0_1/dff_0/a_152_16# control_logic_rw_0/dff_buf_array_0_0/dff_buf_0_1/dff_0/a_104_24# vdd vdd p w=4u l=0.4u
+  ad=4p pd=10u as=0p ps=0u
M1108 control_logic_rw_0/dff_buf_array_0_0/dff_buf_0_1/dff_0/a_140_296# control_logic_rw_0/dff_buf_array_0_0/dff_buf_0_1/dff_0/a_24_24# control_logic_rw_0/dff_buf_array_0_0/dff_buf_0_1/dff_0/a_104_24# vdd p w=4u l=0.4u
+  ad=3.2p pd=9.6u as=4.8p ps=10.4u
M1109 control_logic_rw_0/dff_buf_array_0_0/dff_buf_0_1/dff_0/a_280_24# clk_buf0 control_logic_rw_0/dff_buf_array_0_0/dff_buf_0_1/dff_0/a_260_24# gnd n w=2u l=0.4u
+  ad=3.2p pd=7.2u as=0p ps=0u
M1110 gnd clk_buf0 control_logic_rw_0/dff_buf_array_0_0/dff_buf_0_1/dff_0/a_24_24# gnd n w=4u l=0.4u
+  ad=0p pd=0u as=4p ps=10u
M1111 control_logic_rw_0/dff_buf_array_0_0/dff_buf_0_1/dff_0/a_260_296# control_logic_rw_0/dff_buf_array_0_0/dff_buf_0_1/dff_0/a_152_16# vdd vdd p w=4u l=0.4u
+  ad=0p pd=0u as=0p ps=0u
M1112 control_logic_rw_0/dff_buf_array_0_0/dff_buf_0_1/dff_0/a_152_16# control_logic_rw_0/dff_buf_array_0_0/dff_buf_0_1/dff_0/a_104_24# gnd gnd n w=2u l=0.4u
+  ad=2p pd=6u as=0p ps=0u
M1113 control_logic_rw_0/dff_buf_array_0_0/dff_buf_0_1/dff_0/a_104_24# control_logic_rw_0/dff_buf_array_0_0/dff_buf_0_1/dff_0/a_24_24# control_logic_rw_0/dff_buf_array_0_0/dff_buf_0_1/dff_0/a_84_24# gnd n w=2u l=0.4u
+  ad=2.8p pd=6.8u as=0p ps=0u
M1114 control_logic_rw_0/dff_buf_array_0_0/dff_buf_0_1/dff_0/a_320_24# control_logic_rw_0/dff_buf_array_0_0/dff_buf_0_1/dff_0/a_24_24# control_logic_rw_0/dff_buf_array_0_0/dff_buf_0_1/dff_0/a_280_24# gnd n w=2u l=0.4u
+  ad=0p pd=0u as=0p ps=0u
M1115 vdd control_logic_rw_0/dff_buf_array_0_0/dff_buf_0_1/dff_0/Q control_logic_rw_0/dff_buf_array_0_0/dff_buf_0_1/dff_0/a_320_336# vdd p w=2u l=0.4u
+  ad=0p pd=0u as=0p ps=0u
M1116 control_logic_rw_0/dff_buf_array_0_0/dff_buf_0_1/dff_0/Q control_logic_rw_0/dff_buf_array_0_0/dff_buf_0_1/dff_0/a_280_24# gnd gnd n w=4u l=0.4u
+  ad=4p pd=10u as=0p ps=0u
M1117 vdd control_logic_rw_0/dff_buf_array_0_0/dff_buf_0_1/dff_0/a_152_16# control_logic_rw_0/dff_buf_array_0_0/dff_buf_0_1/dff_0/a_140_296# vdd p w=4u l=0.4u
+  ad=0p pd=0u as=0p ps=0u
M1118 control_logic_rw_0/dff_buf_array_0_0/dff_buf_0_1/dff_0/a_140_24# clk_buf0 control_logic_rw_0/dff_buf_array_0_0/dff_buf_0_1/dff_0/a_104_24# gnd n w=2u l=0.4u
+  ad=0p pd=0u as=0p ps=0u
M1119 control_logic_rw_0/dff_buf_array_0_0/dff_buf_0_1/dff_0/a_104_24# clk_buf0 control_logic_rw_0/dff_buf_array_0_0/dff_buf_0_1/dff_0/a_84_296# vdd p w=4u l=0.4u
+  ad=0p pd=0u as=0p ps=0u
M1120 control_logic_rw_0/pand2_0_0/B control_logic_rw_0/dff_buf_array_0_0/dff_buf_0_1/dff_0/Q vdd vdd p w=3.2u l=0.4u
+  ad=3.2025p pd=8.45u as=0p ps=0u
M1121 control_logic_rw_0/pand2_0_0/B control_logic_rw_0/dff_buf_array_0_0/dff_buf_0_1/dff_0/Q gnd gnd n w=1.6u l=0.4u
+  ad=1.6025p pd=5.25u as=0p ps=0u
M1122 control_logic_rw_0/dff_buf_array_0_0/dout_0 control_logic_rw_0/pand2_0_0/B gnd gnd n w=3.2u l=0.4u
+  ad=3.2025p pd=8.45u as=0p ps=0u
M1123 control_logic_rw_0/dff_buf_array_0_0/dout_0 control_logic_rw_0/pand2_0_0/B vdd vdd p w=6.4u l=0.4u
+  ad=6.4025p pd=14.85u as=0p ps=0u
M1124 vdd clk_buf0 control_logic_rw_0/dff_buf_array_0_0/dff_buf_0_0/dff_0/a_24_24# vdd p w=8u l=0.4u
+  ad=0p pd=0u as=8p ps=18u
M1125 control_logic_rw_0/dff_buf_array_0_0/dff_buf_0_0/dff_0/a_280_24# control_logic_rw_0/dff_buf_array_0_0/dff_buf_0_0/dff_0/a_24_24# control_logic_rw_0/dff_buf_array_0_0/dff_buf_0_0/dff_0/a_260_296# vdd p w=4u l=0.4u
+  ad=6p pd=11.2u as=2.4p ps=9.2u
M1126 control_logic_rw_0/dff_buf_array_0_0/dff_buf_0_0/dff_0/Q control_logic_rw_0/dff_buf_array_0_0/dff_buf_0_0/dff_0/a_280_24# vdd vdd p w=8u l=0.4u
+  ad=8p pd=18u as=0p ps=0u
M1127 control_logic_rw_0/dff_buf_array_0_0/dff_buf_0_0/dff_0/a_260_24# control_logic_rw_0/dff_buf_array_0_0/dff_buf_0_0/dff_0/a_152_16# gnd gnd n w=2u l=0.4u
+  ad=1.2p pd=5.2u as=0p ps=0u
M1128 control_logic_rw_0/dff_buf_array_0_0/dff_buf_0_0/dff_0/a_84_296# web0 vdd vdd p w=4u l=0.4u
+  ad=3.2p pd=9.6u as=0p ps=0u
M1129 control_logic_rw_0/dff_buf_array_0_0/dff_buf_0_0/dff_0/a_84_24# web0 gnd gnd n w=2u l=0.4u
+  ad=1.2p pd=5.2u as=0p ps=0u
M1130 gnd control_logic_rw_0/dff_buf_array_0_0/dff_buf_0_0/dff_0/Q control_logic_rw_0/dff_buf_array_0_0/dff_buf_0_0/dff_0/a_320_24# gnd n w=2u l=0.4u
+  ad=0p pd=0u as=1.2p ps=5.2u
M1131 gnd control_logic_rw_0/dff_buf_array_0_0/dff_buf_0_0/dff_0/a_152_16# control_logic_rw_0/dff_buf_array_0_0/dff_buf_0_0/dff_0/a_140_24# gnd n w=2u l=0.4u
+  ad=0p pd=0u as=1.2p ps=5.2u
M1132 control_logic_rw_0/dff_buf_array_0_0/dff_buf_0_0/dff_0/a_320_336# clk_buf0 control_logic_rw_0/dff_buf_array_0_0/dff_buf_0_0/dff_0/a_280_24# vdd p w=2u l=0.4u
+  ad=1.2p pd=5.2u as=0p ps=0u
M1133 control_logic_rw_0/dff_buf_array_0_0/dff_buf_0_0/dff_0/a_152_16# control_logic_rw_0/dff_buf_array_0_0/dff_buf_0_0/dff_0/a_104_24# vdd vdd p w=4u l=0.4u
+  ad=4p pd=10u as=0p ps=0u
M1134 control_logic_rw_0/dff_buf_array_0_0/dff_buf_0_0/dff_0/a_140_296# control_logic_rw_0/dff_buf_array_0_0/dff_buf_0_0/dff_0/a_24_24# control_logic_rw_0/dff_buf_array_0_0/dff_buf_0_0/dff_0/a_104_24# vdd p w=4u l=0.4u
+  ad=3.2p pd=9.6u as=4.8p ps=10.4u
M1135 control_logic_rw_0/dff_buf_array_0_0/dff_buf_0_0/dff_0/a_280_24# clk_buf0 control_logic_rw_0/dff_buf_array_0_0/dff_buf_0_0/dff_0/a_260_24# gnd n w=2u l=0.4u
+  ad=3.2p pd=7.2u as=0p ps=0u
M1136 gnd clk_buf0 control_logic_rw_0/dff_buf_array_0_0/dff_buf_0_0/dff_0/a_24_24# gnd n w=4u l=0.4u
+  ad=0p pd=0u as=4p ps=10u
M1137 control_logic_rw_0/dff_buf_array_0_0/dff_buf_0_0/dff_0/a_260_296# control_logic_rw_0/dff_buf_array_0_0/dff_buf_0_0/dff_0/a_152_16# vdd vdd p w=4u l=0.4u
+  ad=0p pd=0u as=0p ps=0u
M1138 control_logic_rw_0/dff_buf_array_0_0/dff_buf_0_0/dff_0/a_152_16# control_logic_rw_0/dff_buf_array_0_0/dff_buf_0_0/dff_0/a_104_24# gnd gnd n w=2u l=0.4u
+  ad=2p pd=6u as=0p ps=0u
M1139 control_logic_rw_0/dff_buf_array_0_0/dff_buf_0_0/dff_0/a_104_24# control_logic_rw_0/dff_buf_array_0_0/dff_buf_0_0/dff_0/a_24_24# control_logic_rw_0/dff_buf_array_0_0/dff_buf_0_0/dff_0/a_84_24# gnd n w=2u l=0.4u
+  ad=2.8p pd=6.8u as=0p ps=0u
M1140 control_logic_rw_0/dff_buf_array_0_0/dff_buf_0_0/dff_0/a_320_24# control_logic_rw_0/dff_buf_array_0_0/dff_buf_0_0/dff_0/a_24_24# control_logic_rw_0/dff_buf_array_0_0/dff_buf_0_0/dff_0/a_280_24# gnd n w=2u l=0.4u
+  ad=0p pd=0u as=0p ps=0u
M1141 vdd control_logic_rw_0/dff_buf_array_0_0/dff_buf_0_0/dff_0/Q control_logic_rw_0/dff_buf_array_0_0/dff_buf_0_0/dff_0/a_320_336# vdd p w=2u l=0.4u
+  ad=0p pd=0u as=0p ps=0u
M1142 control_logic_rw_0/dff_buf_array_0_0/dff_buf_0_0/dff_0/Q control_logic_rw_0/dff_buf_array_0_0/dff_buf_0_0/dff_0/a_280_24# gnd gnd n w=4u l=0.4u
+  ad=4p pd=10u as=0p ps=0u
M1143 vdd control_logic_rw_0/dff_buf_array_0_0/dff_buf_0_0/dff_0/a_152_16# control_logic_rw_0/dff_buf_array_0_0/dff_buf_0_0/dff_0/a_140_296# vdd p w=4u l=0.4u
+  ad=0p pd=0u as=0p ps=0u
M1144 control_logic_rw_0/dff_buf_array_0_0/dff_buf_0_0/dff_0/a_140_24# clk_buf0 control_logic_rw_0/dff_buf_array_0_0/dff_buf_0_0/dff_0/a_104_24# gnd n w=2u l=0.4u
+  ad=0p pd=0u as=0p ps=0u
M1145 control_logic_rw_0/dff_buf_array_0_0/dff_buf_0_0/dff_0/a_104_24# clk_buf0 control_logic_rw_0/dff_buf_array_0_0/dff_buf_0_0/dff_0/a_84_296# vdd p w=4u l=0.4u
+  ad=0p pd=0u as=0p ps=0u
M1146 control_logic_rw_0/pand3_0_0/A control_logic_rw_0/dff_buf_array_0_0/dff_buf_0_0/dff_0/Q vdd vdd p w=3.2u l=0.4u
+  ad=3.2025p pd=8.45u as=0p ps=0u
M1147 control_logic_rw_0/pand3_0_0/A control_logic_rw_0/dff_buf_array_0_0/dff_buf_0_0/dff_0/Q gnd gnd n w=1.6u l=0.4u
+  ad=1.6025p pd=5.25u as=0p ps=0u
M1148 control_logic_rw_0/pand3_1_0/C control_logic_rw_0/pand3_0_0/A gnd gnd n w=3.2u l=0.4u
+  ad=3.2025p pd=8.45u as=0p ps=0u
M1149 control_logic_rw_0/pand3_1_0/C control_logic_rw_0/pand3_0_0/A vdd vdd p w=6.4u l=0.4u
+  ad=6.4025p pd=14.85u as=0p ps=0u
M1150 vdd control_logic_rw_0/pinv_5_0/A control_logic_rw_0/pnand2_1_0/Z vdd p w=1.6u l=0.4u
+  ad=0p pd=0u as=3.205p ps=5.75u
M1151 control_logic_rw_0/pnand2_1_0/Z control_logic_rw_0/pand2_0_0/Z vdd vdd p w=1.6u l=0.4u
+  ad=0p pd=0u as=0p ps=0u
M1152 control_logic_rw_0/pnand2_1_0/Z control_logic_rw_0/pinv_5_0/A control_logic_rw_0/pnand2_1_0/nmos_m1_w1_600_a_p_1/D gnd n w=1.6u l=0.4u
+  ad=1.6025p pd=5.25u as=1.9275p ps=5.75u
M1153 control_logic_rw_0/pnand2_1_0/nmos_m1_w1_600_a_p_1/D control_logic_rw_0/pand2_0_0/Z gnd gnd n w=1.6u l=0.4u
+  ad=0p pd=0u as=0p ps=0u
M1154 clk_buf0 control_logic_rw_0/pdriver_2_0/pinv_7_0/A vdd vdd p w=8u l=0.4u
+  ad=17.6025p pd=36.45u as=0p ps=0u
M1155 clk_buf0 control_logic_rw_0/pdriver_2_0/pinv_7_0/A vdd vdd p w=8u l=0.4u
+  ad=0p pd=0u as=0p ps=0u
M1156 vdd control_logic_rw_0/pdriver_2_0/pinv_7_0/A clk_buf0 vdd p w=8u l=0.4u
+  ad=0p pd=0u as=0p ps=0u
M1157 gnd control_logic_rw_0/pdriver_2_0/pinv_7_0/A clk_buf0 gnd n w=4u l=0.4u
+  ad=0p pd=0u as=8.8025p ps=20.45u
M1158 clk_buf0 control_logic_rw_0/pdriver_2_0/pinv_7_0/A gnd gnd n w=4u l=0.4u
+  ad=0p pd=0u as=0p ps=0u
M1159 clk_buf0 control_logic_rw_0/pdriver_2_0/pinv_7_0/A gnd gnd n w=4u l=0.4u
+  ad=0p pd=0u as=0p ps=0u
M1160 control_logic_rw_0/pdriver_2_0/pinv_3_0/A clk0 vdd vdd p w=1.6u l=0.4u
+  ad=1.6025p pd=5.25u as=0p ps=0u
M1161 control_logic_rw_0/pdriver_2_0/pinv_3_0/A clk0 gnd gnd n w=0.8u l=0.4u
+  ad=0.8025p pd=3.65u as=0p ps=0u
M1162 control_logic_rw_0/pdriver_2_0/pinv_6_0/A control_logic_rw_0/pdriver_2_0/pinv_3_0/A vdd vdd p w=3.2u l=0.4u
+  ad=3.2025p pd=8.45u as=0p ps=0u
M1163 control_logic_rw_0/pdriver_2_0/pinv_6_0/A control_logic_rw_0/pdriver_2_0/pinv_3_0/A gnd gnd n w=1.6u l=0.4u
+  ad=1.6025p pd=5.25u as=0p ps=0u
M1164 control_logic_rw_0/pdriver_2_0/pinv_7_0/A control_logic_rw_0/pdriver_2_0/pinv_6_0/A vdd vdd p w=8u l=0.4u
+  ad=8.0025p pd=18.05u as=0p ps=0u
M1165 control_logic_rw_0/pdriver_2_0/pinv_7_0/A control_logic_rw_0/pdriver_2_0/pinv_6_0/A gnd gnd n w=4u l=0.4u
+  ad=4.0025p pd=10.05u as=0p ps=0u
M1166 control_logic_rw_0/delay_chain_0_0/pinv_2_6/Z control_logic_rw_0/delay_chain_0_0/pinv_2_4/A vdd vdd p w=1.6u l=0.4u
+  ad=1.6025p pd=5.25u as=0p ps=0u
M1167 control_logic_rw_0/delay_chain_0_0/pinv_2_6/Z control_logic_rw_0/delay_chain_0_0/pinv_2_4/A gnd gnd n w=0.8u l=0.4u
+  ad=0.8025p pd=3.65u as=0p ps=0u
M1168 control_logic_rw_0/delay_chain_0_0/pinv_2_16/Z control_logic_rw_0/delay_chain_0_0/pinv_2_14/A vdd vdd p w=1.6u l=0.4u
+  ad=1.6025p pd=5.25u as=0p ps=0u
M1169 control_logic_rw_0/delay_chain_0_0/pinv_2_16/Z control_logic_rw_0/delay_chain_0_0/pinv_2_14/A gnd gnd n w=0.8u l=0.4u
+  ad=0.8025p pd=3.65u as=0p ps=0u
M1170 control_logic_rw_0/delay_chain_0_0/pinv_2_38/Z control_logic_rw_0/delay_chain_0_0/pinv_2_34/A vdd vdd p w=1.6u l=0.4u
+  ad=1.6025p pd=5.25u as=0p ps=0u
M1171 control_logic_rw_0/delay_chain_0_0/pinv_2_38/Z control_logic_rw_0/delay_chain_0_0/pinv_2_34/A gnd gnd n w=0.8u l=0.4u
+  ad=0.8025p pd=3.65u as=0p ps=0u
M1172 control_logic_rw_0/delay_chain_0_0/pinv_2_27/Z control_logic_rw_0/delay_chain_0_0/pinv_2_24/A vdd vdd p w=1.6u l=0.4u
+  ad=1.6025p pd=5.25u as=0p ps=0u
M1173 control_logic_rw_0/delay_chain_0_0/pinv_2_27/Z control_logic_rw_0/delay_chain_0_0/pinv_2_24/A gnd gnd n w=0.8u l=0.4u
+  ad=0.8025p pd=3.65u as=0p ps=0u
M1174 control_logic_rw_0/delay_chain_0_0/pinv_2_7/Z control_logic_rw_0/delay_chain_0_0/pinv_2_4/A vdd vdd p w=1.6u l=0.4u
+  ad=1.6025p pd=5.25u as=0p ps=0u
M1175 control_logic_rw_0/delay_chain_0_0/pinv_2_7/Z control_logic_rw_0/delay_chain_0_0/pinv_2_4/A gnd gnd n w=0.8u l=0.4u
+  ad=0.8025p pd=3.65u as=0p ps=0u
M1176 control_logic_rw_0/delay_chain_0_0/pinv_2_17/Z control_logic_rw_0/delay_chain_0_0/pinv_2_14/A vdd vdd p w=1.6u l=0.4u
+  ad=1.6025p pd=5.25u as=0p ps=0u
M1177 control_logic_rw_0/delay_chain_0_0/pinv_2_17/Z control_logic_rw_0/delay_chain_0_0/pinv_2_14/A gnd gnd n w=0.8u l=0.4u
+  ad=0.8025p pd=3.65u as=0p ps=0u
M1178 control_logic_rw_0/delay_chain_0_0/pinv_2_34/A control_logic_rw_0/delay_chain_0_0/pinv_2_40/A vdd vdd p w=1.6u l=0.4u
+  ad=1.6025p pd=5.25u as=0p ps=0u
M1179 control_logic_rw_0/delay_chain_0_0/pinv_2_34/A control_logic_rw_0/delay_chain_0_0/pinv_2_40/A gnd gnd n w=0.8u l=0.4u
+  ad=0.8025p pd=3.65u as=0p ps=0u
M1180 control_logic_rw_0/delay_chain_0_0/pinv_2_28/Z control_logic_rw_0/delay_chain_0_0/pinv_2_24/A vdd vdd p w=1.6u l=0.4u
+  ad=1.6025p pd=5.25u as=0p ps=0u
M1181 control_logic_rw_0/delay_chain_0_0/pinv_2_28/Z control_logic_rw_0/delay_chain_0_0/pinv_2_24/A gnd gnd n w=0.8u l=0.4u
+  ad=0.8025p pd=3.65u as=0p ps=0u
M1182 control_logic_rw_0/delay_chain_0_0/pinv_2_8/Z control_logic_rw_0/delay_chain_0_0/pinv_2_4/A vdd vdd p w=1.6u l=0.4u
+  ad=1.6025p pd=5.25u as=0p ps=0u
M1183 control_logic_rw_0/delay_chain_0_0/pinv_2_8/Z control_logic_rw_0/delay_chain_0_0/pinv_2_4/A gnd gnd n w=0.8u l=0.4u
+  ad=0.8025p pd=3.65u as=0p ps=0u
M1184 control_logic_rw_0/delay_chain_0_0/pinv_2_18/Z control_logic_rw_0/delay_chain_0_0/pinv_2_14/A vdd vdd p w=1.6u l=0.4u
+  ad=1.6025p pd=5.25u as=0p ps=0u
M1185 control_logic_rw_0/delay_chain_0_0/pinv_2_18/Z control_logic_rw_0/delay_chain_0_0/pinv_2_14/A gnd gnd n w=0.8u l=0.4u
+  ad=0.8025p pd=3.65u as=0p ps=0u
M1186 control_logic_rw_0/delay_chain_0_0/pinv_2_24/A control_logic_rw_0/delay_chain_0_0/pinv_2_30/A vdd vdd p w=1.6u l=0.4u
+  ad=1.6025p pd=5.25u as=0p ps=0u
M1187 control_logic_rw_0/delay_chain_0_0/pinv_2_24/A control_logic_rw_0/delay_chain_0_0/pinv_2_30/A gnd gnd n w=0.8u l=0.4u
+  ad=0.8025p pd=3.65u as=0p ps=0u
M1188 control_logic_rw_0/delay_chain_0_0/pinv_2_4/A control_logic_rw_0/delay_chain_0_0/pinv_2_9/A vdd vdd p w=1.6u l=0.4u
+  ad=1.6025p pd=5.25u as=0p ps=0u
M1189 control_logic_rw_0/delay_chain_0_0/pinv_2_4/A control_logic_rw_0/delay_chain_0_0/pinv_2_9/A gnd gnd n w=0.8u l=0.4u
+  ad=0.8025p pd=3.65u as=0p ps=0u
M1190 control_logic_rw_0/delay_chain_0_0/pinv_2_14/A control_logic_rw_0/delay_chain_0_0/pinv_2_20/A vdd vdd p w=1.6u l=0.4u
+  ad=1.6025p pd=5.25u as=0p ps=0u
M1191 control_logic_rw_0/delay_chain_0_0/pinv_2_14/A control_logic_rw_0/delay_chain_0_0/pinv_2_20/A gnd gnd n w=0.8u l=0.4u
+  ad=0.8025p pd=3.65u as=0p ps=0u
M1192 control_logic_rw_0/delay_chain_0_0/pinv_2_40/Z control_logic_rw_0/delay_chain_0_0/pinv_2_40/A vdd vdd p w=1.6u l=0.4u
+  ad=1.6025p pd=5.25u as=0p ps=0u