**************************************************
* OpenRAM generated memory.
* Words: 16
* Data bits: 16
* Banks: 1
* Column mux: 1:1
**************************************************
* SPICE3 file created from dff.ext - technology: EFS8A

.subckt dff D Q clk vdd gnd
M1000 a_511_725# a_n8_115# vdd vdd pshort W=3u L=0.15u m=1
M1001 a_353_115# clk a_11_624# gnd nshort W=1u L=0.15u m=1
M1002 a_353_725# a_203_89# a_11_624# vdd pshort W=3u L=0.15u m=1
M1003 a_11_624# a_203_89# a_161_115# gnd nshort W=1u L=0.15u m=1
M1004 a_11_624# clk a_161_725# vdd pshort W=3u L=0.15u m=1
M1005 gnd Q a_703_115# gnd nshort W=1u L=0.15u m=1
M1006 vdd Q a_703_725# vdd pshort W=3u L=0.15u m=1
M1007 a_203_89# clk gnd gnd nshort W=1u L=0.15u m=1
M1008 a_203_89# clk vdd vdd pshort W=3u L=0.15u m=1
M1009 a_161_115# D gnd gnd nshort W=1u L=0.15u m=1
M1010 a_161_725# D vdd vdd pshort W=3u L=0.15u m=1
M1011 gnd a_11_624# a_n8_115# gnd nshort W=1u L=0.15u m=1
M1012 a_703_115# a_203_89# ON gnd nshort W=1u L=0.15u m=1
M1013 vdd a_11_624# a_n8_115# vdd pshort W=3u L=0.15u m=1
M1014 a_703_725# clk ON vdd pshort W=3u L=0.15u m=1
M1015 Q ON vdd vdd pshort W=3u L=0.15u m=1
M1016 Q ON gnd gnd nshort W=1u L=0.15u m=1
M1017 ON a_203_89# a_511_725# vdd pshort W=3u L=0.15u m=1
M1018 ON clk a_511_115# gnd nshort W=1u L=0.15u m=1
M1019 gnd a_n8_115# a_353_115# gnd nshort W=1u L=0.15u m=1
M1020 vdd a_n8_115# a_353_725# vdd pshort W=3u L=0.15u m=1
M1021 a_511_115# a_n8_115# gnd gnd nshort W=1u L=0.15u m=1
.ends

.SUBCKT row_addr_dff din_0 din_1 din_2 din_3 dout_0 dout_1 dout_2 dout_3 clk vdd gnd
* INPUT : din_0 
* INPUT : din_1 
* INPUT : din_2 
* INPUT : din_3 
* OUTPUT: dout_0 
* OUTPUT: dout_1 
* OUTPUT: dout_2 
* OUTPUT: dout_3 
* INPUT : clk 
* POWER : vdd 
* GROUND: gnd 
* rows: 4 cols: 1
Xdff_r0_c0 din_0 dout_0 clk vdd gnd dff
Xdff_r1_c0 din_1 dout_1 clk vdd gnd dff
Xdff_r2_c0 din_2 dout_2 clk vdd gnd dff
Xdff_r3_c0 din_3 dout_3 clk vdd gnd dff
.ENDS row_addr_dff

.SUBCKT data_dff din_0 din_1 din_2 din_3 din_4 din_5 din_6 din_7 din_8 din_9 din_10 din_11 din_12 din_13 din_14 din_15 dout_0 dout_1 dout_2 dout_3 dout_4 dout_5 dout_6 dout_7 dout_8 dout_9 dout_10 dout_11 dout_12 dout_13 dout_14 dout_15 clk vdd gnd
* INPUT : din_0 
* INPUT : din_1 
* INPUT : din_2 
* INPUT : din_3 
* INPUT : din_4 
* INPUT : din_5 
* INPUT : din_6 
* INPUT : din_7 
* INPUT : din_8 
* INPUT : din_9 
* INPUT : din_10 
* INPUT : din_11 
* INPUT : din_12 
* INPUT : din_13 
* INPUT : din_14 
* INPUT : din_15 
* OUTPUT: dout_0 
* OUTPUT: dout_1 
* OUTPUT: dout_2 
* OUTPUT: dout_3 
* OUTPUT: dout_4 
* OUTPUT: dout_5 
* OUTPUT: dout_6 
* OUTPUT: dout_7 
* OUTPUT: dout_8 
* OUTPUT: dout_9 
* OUTPUT: dout_10 
* OUTPUT: dout_11 
* OUTPUT: dout_12 
* OUTPUT: dout_13 
* OUTPUT: dout_14 
* OUTPUT: dout_15 
* INPUT : clk 
* POWER : vdd 
* GROUND: gnd 
* rows: 1 cols: 16
Xdff_r0_c0 din_0 dout_0 clk vdd gnd dff
Xdff_r0_c1 din_1 dout_1 clk vdd gnd dff
Xdff_r0_c2 din_2 dout_2 clk vdd gnd dff
Xdff_r0_c3 din_3 dout_3 clk vdd gnd dff
Xdff_r0_c4 din_4 dout_4 clk vdd gnd dff
Xdff_r0_c5 din_5 dout_5 clk vdd gnd dff
Xdff_r0_c6 din_6 dout_6 clk vdd gnd dff
Xdff_r0_c7 din_7 dout_7 clk vdd gnd dff
Xdff_r0_c8 din_8 dout_8 clk vdd gnd dff
Xdff_r0_c9 din_9 dout_9 clk vdd gnd dff
Xdff_r0_c10 din_10 dout_10 clk vdd gnd dff
Xdff_r0_c11 din_11 dout_11 clk vdd gnd dff
Xdff_r0_c12 din_12 dout_12 clk vdd gnd dff
Xdff_r0_c13 din_13 dout_13 clk vdd gnd dff
Xdff_r0_c14 din_14 dout_14 clk vdd gnd dff
Xdff_r0_c15 din_15 dout_15 clk vdd gnd dff
.ENDS data_dff

.SUBCKT wmask_dff din_0 din_1 dout_0 dout_1 clk vdd gnd
* INPUT : din_0 
* INPUT : din_1 
* OUTPUT: dout_0 
* OUTPUT: dout_1 
* INPUT : clk 
* POWER : vdd 
* GROUND: gnd 
* rows: 1 cols: 2
Xdff_r0_c0 din_0 dout_0 clk vdd gnd dff
Xdff_r0_c1 din_1 dout_1 clk vdd gnd dff
.ENDS wmask_dff

* ptx M{0} {1} pshort m=1 w=0.55u l=0.15u pd=1.40u ps=1.40u as=0.21p ad=0.21p

.SUBCKT precharge_0 bl br en_bar vdd
* OUTPUT: bl 
* OUTPUT: br 
* INPUT : en_bar 
* POWER : vdd 
Mlower_pmos bl en_bar br vdd pshort m=1 w=0.55u l=0.15u 
Mupper_pmos1 bl en_bar vdd vdd pshort m=1 w=0.55u l=0.15u 
Mupper_pmos2 br en_bar vdd vdd pshort m=1 w=0.55u l=0.15u 
.ENDS precharge_0

.SUBCKT precharge_array bl_0 br_0 bl_1 br_1 bl_2 br_2 bl_3 br_3 bl_4 br_4 bl_5 br_5 bl_6 br_6 bl_7 br_7 bl_8 br_8 bl_9 br_9 bl_10 br_10 bl_11 br_11 bl_12 br_12 bl_13 br_13 bl_14 br_14 bl_15 br_15 bl_16 br_16 en_bar vdd
* OUTPUT: bl_0 
* OUTPUT: br_0 
* OUTPUT: bl_1 
* OUTPUT: br_1 
* OUTPUT: bl_2 
* OUTPUT: br_2 
* OUTPUT: bl_3 
* OUTPUT: br_3 
* OUTPUT: bl_4 
* OUTPUT: br_4 
* OUTPUT: bl_5 
* OUTPUT: br_5 
* OUTPUT: bl_6 
* OUTPUT: br_6 
* OUTPUT: bl_7 
* OUTPUT: br_7 
* OUTPUT: bl_8 
* OUTPUT: br_8 
* OUTPUT: bl_9 
* OUTPUT: br_9 
* OUTPUT: bl_10 
* OUTPUT: br_10 
* OUTPUT: bl_11 
* OUTPUT: br_11 
* OUTPUT: bl_12 
* OUTPUT: br_12 
* OUTPUT: bl_13 
* OUTPUT: br_13 
* OUTPUT: bl_14 
* OUTPUT: br_14 
* OUTPUT: bl_15 
* OUTPUT: br_15 
* OUTPUT: bl_16 
* OUTPUT: br_16 
* INPUT : en_bar 
* POWER : vdd 
* cols: 17 size: 1 bl: bl0 br: br0
Xpre_column_0 bl_0 br_0 en_bar vdd precharge_0
Xpre_column_1 bl_1 br_1 en_bar vdd precharge_0
Xpre_column_2 bl_2 br_2 en_bar vdd precharge_0
Xpre_column_3 bl_3 br_3 en_bar vdd precharge_0
Xpre_column_4 bl_4 br_4 en_bar vdd precharge_0
Xpre_column_5 bl_5 br_5 en_bar vdd precharge_0
Xpre_column_6 bl_6 br_6 en_bar vdd precharge_0
Xpre_column_7 bl_7 br_7 en_bar vdd precharge_0
Xpre_column_8 bl_8 br_8 en_bar vdd precharge_0
Xpre_column_9 bl_9 br_9 en_bar vdd precharge_0
Xpre_column_10 bl_10 br_10 en_bar vdd precharge_0
Xpre_column_11 bl_11 br_11 en_bar vdd precharge_0
Xpre_column_12 bl_12 br_12 en_bar vdd precharge_0
Xpre_column_13 bl_13 br_13 en_bar vdd precharge_0
Xpre_column_14 bl_14 br_14 en_bar vdd precharge_0
Xpre_column_15 bl_15 br_15 en_bar vdd precharge_0
Xpre_column_16 bl_16 br_16 en_bar vdd precharge_0
.ENDS precharge_array
*********************** "sense_amp" ******************************

.SUBCKT sense_amp bl br dout en vdd gnd
M1000 gnd en a_56_432# gnd nshort W=0.65u L=0.15u m=1
M1001 a_56_432# dint_bar dint gnd nshort W=0.65u L=0.15u m=1
M1002 dint_bar dint a_56_432# gnd nshort W=0.65u L=0.15u m=1

M1003 vdd dint_bar dint vdd pshort W=1.26u L=0.15u m=1
M1004 dint_bar dint vdd vdd pshort W=1.26u L=0.15u m=1

M1005 bl en dint vdd pshort W=2u L=0.15u m=1
M1006 dint_bar en br vdd pshort W=2u L=0.15u m=1

M1007 vdd dint_bar dout vdd pshort W=1.26u L=0.15u m=1
M1008 dout dint_bar gnd gnd nshort W=0.65u L=0.15u m=1

.ENDS sense_amp

.SUBCKT sense_amp_array data_0 bl_0 br_0 data_1 bl_1 br_1 data_2 bl_2 br_2 data_3 bl_3 br_3 data_4 bl_4 br_4 data_5 bl_5 br_5 data_6 bl_6 br_6 data_7 bl_7 br_7 data_8 bl_8 br_8 data_9 bl_9 br_9 data_10 bl_10 br_10 data_11 bl_11 br_11 data_12 bl_12 br_12 data_13 bl_13 br_13 data_14 bl_14 br_14 data_15 bl_15 br_15 en vdd gnd
* OUTPUT: data_0 
* INPUT : bl_0 
* INPUT : br_0 
* OUTPUT: data_1 
* INPUT : bl_1 
* INPUT : br_1 
* OUTPUT: data_2 
* INPUT : bl_2 
* INPUT : br_2 
* OUTPUT: data_3 
* INPUT : bl_3 
* INPUT : br_3 
* OUTPUT: data_4 
* INPUT : bl_4 
* INPUT : br_4 
* OUTPUT: data_5 
* INPUT : bl_5 
* INPUT : br_5 
* OUTPUT: data_6 
* INPUT : bl_6 
* INPUT : br_6 
* OUTPUT: data_7 
* INPUT : bl_7 
* INPUT : br_7 
* OUTPUT: data_8 
* INPUT : bl_8 
* INPUT : br_8 
* OUTPUT: data_9 
* INPUT : bl_9 
* INPUT : br_9 
* OUTPUT: data_10 
* INPUT : bl_10 
* INPUT : br_10 
* OUTPUT: data_11 
* INPUT : bl_11 
* INPUT : br_11 
* OUTPUT: data_12 
* INPUT : bl_12 
* INPUT : br_12 
* OUTPUT: data_13 
* INPUT : bl_13 
* INPUT : br_13 
* OUTPUT: data_14 
* INPUT : bl_14 
* INPUT : br_14 
* OUTPUT: data_15 
* INPUT : bl_15 
* INPUT : br_15 
* INPUT : en 
* POWER : vdd 
* GROUND: gnd 
* words_per_row: 1
Xsa_d0 bl_0 br_0 data_0 en vdd gnd sense_amp
Xsa_d1 bl_1 br_1 data_1 en vdd gnd sense_amp
Xsa_d2 bl_2 br_2 data_2 en vdd gnd sense_amp
Xsa_d3 bl_3 br_3 data_3 en vdd gnd sense_amp
Xsa_d4 bl_4 br_4 data_4 en vdd gnd sense_amp
Xsa_d5 bl_5 br_5 data_5 en vdd gnd sense_amp
Xsa_d6 bl_6 br_6 data_6 en vdd gnd sense_amp
Xsa_d7 bl_7 br_7 data_7 en vdd gnd sense_amp
Xsa_d8 bl_8 br_8 data_8 en vdd gnd sense_amp
Xsa_d9 bl_9 br_9 data_9 en vdd gnd sense_amp
Xsa_d10 bl_10 br_10 data_10 en vdd gnd sense_amp
Xsa_d11 bl_11 br_11 data_11 en vdd gnd sense_amp
Xsa_d12 bl_12 br_12 data_12 en vdd gnd sense_amp
Xsa_d13 bl_13 br_13 data_13 en vdd gnd sense_amp
Xsa_d14 bl_14 br_14 data_14 en vdd gnd sense_amp
Xsa_d15 bl_15 br_15 data_15 en vdd gnd sense_amp
.ENDS sense_amp_array
*********************** "write_driver" ******************************

.SUBCKT write_driver din bl br en vdd gnd

**** Inverter to conver Data_in to data_in_bar ******
* din_bar = inv(din)
M_1 din_bar din gnd gnd nshort W=0.36u L=0.15u m=1
M_2 din_bar din vdd vdd pshort W=0.55u L=0.15u m=1

**** 2input nand gate follwed by inverter to drive BL ******
* din_bar_gated = nand(en, din)
M_3 din_bar_gated en net_7 gnd nshort W=0.55u L=0.15u m=1
M_4 net_7 din gnd gnd nshort W=0.55u L=0.15u m=1
M_5 din_bar_gated en vdd vdd pshort W=0.55u L=0.15u m=1
M_6 din_bar_gated din vdd vdd pshort W=0.55u L=0.15u m=1
* din_bar_gated_bar = inv(din_bar_gated)
M_7 din_bar_gated_bar din_bar_gated vdd vdd pshort W=0.55u L=0.15u m=1
M_8 din_bar_gated_bar din_bar_gated gnd gnd nshort W=0.36u L=0.15u m=1

**** 2input nand gate follwed by inverter to drive BR******
* din_gated = nand(en, din_bar)
M_9 din_gated en vdd vdd pshort W=0.55u L=0.15u m=1
M_10 din_gated en net_8 gnd nshort W=0.55u L=0.15u m=1
M_11 net_8 din_bar gnd gnd nshort W=0.55u L=0.15u m=1
M_12 din_gated din_bar vdd vdd pshort W=0.55u L=0.15u m=1
* din_gated_bar = inv(din_gated)
M_13 din_gated_bar din_gated vdd vdd pshort W=0.55u L=0.15u m=1
M_14 din_gated_bar din_gated gnd gnd nshort W=0.36u L=0.15u m=1

************************************************
* pull down with en enable
M_15 bl din_gated_bar gnd gnd nshort W=1u L=0.15u m=1
M_16 br din_bar_gated_bar gnd gnd nshort W=1u L=0.15u m=1

.ENDS write_driver

.SUBCKT write_driver_array data_0 data_1 data_2 data_3 data_4 data_5 data_6 data_7 data_8 data_9 data_10 data_11 data_12 data_13 data_14 data_15 bl_0 br_0 bl_1 br_1 bl_2 br_2 bl_3 br_3 bl_4 br_4 bl_5 br_5 bl_6 br_6 bl_7 br_7 bl_8 br_8 bl_9 br_9 bl_10 br_10 bl_11 br_11 bl_12 br_12 bl_13 br_13 bl_14 br_14 bl_15 br_15 en_0 en_1 vdd gnd
* INPUT : data_0 
* INPUT : data_1 
* INPUT : data_2 
* INPUT : data_3 
* INPUT : data_4 
* INPUT : data_5 
* INPUT : data_6 
* INPUT : data_7 
* INPUT : data_8 
* INPUT : data_9 
* INPUT : data_10 
* INPUT : data_11 
* INPUT : data_12 
* INPUT : data_13 
* INPUT : data_14 
* INPUT : data_15 
* OUTPUT: bl_0 
* OUTPUT: br_0 
* OUTPUT: bl_1 
* OUTPUT: br_1 
* OUTPUT: bl_2 
* OUTPUT: br_2 
* OUTPUT: bl_3 
* OUTPUT: br_3 
* OUTPUT: bl_4 
* OUTPUT: br_4 
* OUTPUT: bl_5 
* OUTPUT: br_5 
* OUTPUT: bl_6 
* OUTPUT: br_6 
* OUTPUT: bl_7 
* OUTPUT: br_7 
* OUTPUT: bl_8 
* OUTPUT: br_8 
* OUTPUT: bl_9 
* OUTPUT: br_9 
* OUTPUT: bl_10 
* OUTPUT: br_10 
* OUTPUT: bl_11 
* OUTPUT: br_11 
* OUTPUT: bl_12 
* OUTPUT: br_12 
* OUTPUT: bl_13 
* OUTPUT: br_13 
* OUTPUT: bl_14 
* OUTPUT: br_14 
* OUTPUT: bl_15 
* OUTPUT: br_15 
* INPUT : en_0 
* INPUT : en_1 
* POWER : vdd 
* GROUND: gnd 
* word_size 16
Xwrite_driver0 data_0 bl_0 br_0 en_0 vdd gnd write_driver
Xwrite_driver1 data_1 bl_1 br_1 en_0 vdd gnd write_driver
Xwrite_driver2 data_2 bl_2 br_2 en_0 vdd gnd write_driver
Xwrite_driver3 data_3 bl_3 br_3 en_0 vdd gnd write_driver
Xwrite_driver4 data_4 bl_4 br_4 en_0 vdd gnd write_driver
Xwrite_driver5 data_5 bl_5 br_5 en_0 vdd gnd write_driver
Xwrite_driver6 data_6 bl_6 br_6 en_0 vdd gnd write_driver
Xwrite_driver7 data_7 bl_7 br_7 en_0 vdd gnd write_driver
Xwrite_driver8 data_8 bl_8 br_8 en_1 vdd gnd write_driver
Xwrite_driver9 data_9 bl_9 br_9 en_1 vdd gnd write_driver
Xwrite_driver10 data_10 bl_10 br_10 en_1 vdd gnd write_driver
Xwrite_driver11 data_11 bl_11 br_11 en_1 vdd gnd write_driver
Xwrite_driver12 data_12 bl_12 br_12 en_1 vdd gnd write_driver
Xwrite_driver13 data_13 bl_13 br_13 en_1 vdd gnd write_driver
Xwrite_driver14 data_14 bl_14 br_14 en_1 vdd gnd write_driver
Xwrite_driver15 data_15 bl_15 br_15 en_1 vdd gnd write_driver
.ENDS write_driver_array

* ptx M{0} {1} nshort m=1 w=0.74u l=0.15u pd=1.78u ps=1.78u as=0.28p ad=0.28p

* ptx M{0} {1} nshort m=1 w=0.74u l=0.15u pd=1.78u ps=1.78u as=0.28p ad=0.28p

* ptx M{0} {1} pshort m=1 w=1.12u l=0.15u pd=2.54u ps=2.54u as=0.42p ad=0.42p

.SUBCKT pnand2 A B Z vdd gnd
* INPUT : A 
* INPUT : B 
* OUTPUT: Z 
* POWER : vdd 
* GROUND: gnd 
Mpnand2_pmos1 vdd A Z vdd pshort m=1 w=1.12u l=0.15u 
Mpnand2_pmos2 Z B vdd vdd pshort m=1 w=1.12u l=0.15u 
Mpnand2_nmos1 Z B net1 gnd nshort m=1 w=0.74u l=0.15u 
Mpnand2_nmos2 net1 A gnd gnd nshort m=1 w=0.74u l=0.15u 
.ENDS pnand2

* ptx M{0} {1} nshort m=2 w=0.74u l=0.15u pd=1.78u ps=1.78u as=0.28p ad=0.28p

* ptx M{0} {1} pshort m=2 w=2.0u l=0.15u pd=4.30u ps=4.30u as=0.75p ad=0.75p

.SUBCKT pinv A Z vdd gnd
* INPUT : A 
* OUTPUT: Z 
* POWER : vdd 
* GROUND: gnd 
Mpinv_pmos Z A vdd vdd pshort m=2 w=2.0u l=0.15u 
Mpinv_nmos Z A gnd gnd nshort m=2 w=0.74u l=0.15u 
.ENDS pinv

.SUBCKT pdriver A Z vdd gnd
* INPUT : A 
* OUTPUT: Z 
* POWER : vdd 
* GROUND: gnd 
* sizes: [2.0]
Xbuf_inv1 A Z vdd gnd pinv
.ENDS pdriver

.SUBCKT pand2 A B Z vdd gnd
* INPUT : A 
* INPUT : B 
* OUTPUT: Z 
* POWER : vdd 
* GROUND: gnd 
Xpand2_nand A B zb_int vdd gnd pnand2
Xpand2_inv zb_int Z vdd gnd pdriver
.ENDS pand2

.SUBCKT write_mask_and_array wmask_in_0 wmask_in_1 en wmask_out_0 wmask_out_1 vdd gnd
* INPUT : wmask_in_0 
* INPUT : wmask_in_1 
* INPUT : en 
* OUTPUT: wmask_out_0 
* OUTPUT: wmask_out_1 
* POWER : vdd 
* GROUND: gnd 
* write_size 8
Xand2_0 wmask_in_0 en wmask_out_0 vdd gnd pand2
Xand2_1 wmask_in_1 en wmask_out_1 vdd gnd pand2
.ENDS write_mask_and_array

.SUBCKT port_data rbl_bl rbl_br bl0_0 br0_0 bl0_1 br0_1 bl0_2 br0_2 bl0_3 br0_3 bl0_4 br0_4 bl0_5 br0_5 bl0_6 br0_6 bl0_7 br0_7 bl0_8 br0_8 bl0_9 br0_9 bl0_10 br0_10 bl0_11 br0_11 bl0_12 br0_12 bl0_13 br0_13 bl0_14 br0_14 bl0_15 br0_15 dout_0 dout_1 dout_2 dout_3 dout_4 dout_5 dout_6 dout_7 dout_8 dout_9 dout_10 dout_11 dout_12 dout_13 dout_14 dout_15 din_0 din_1 din_2 din_3 din_4 din_5 din_6 din_7 din_8 din_9 din_10 din_11 din_12 din_13 din_14 din_15 s_en p_en_bar w_en bank_wmask_0 bank_wmask_1 vdd gnd
* INOUT : rbl_bl 
* INOUT : rbl_br 
* INOUT : bl0_0 
* INOUT : br0_0 
* INOUT : bl0_1 
* INOUT : br0_1 
* INOUT : bl0_2 
* INOUT : br0_2 
* INOUT : bl0_3 
* INOUT : br0_3 
* INOUT : bl0_4 
* INOUT : br0_4 
* INOUT : bl0_5 
* INOUT : br0_5 
* INOUT : bl0_6 
* INOUT : br0_6 
* INOUT : bl0_7 
* INOUT : br0_7 
* INOUT : bl0_8 
* INOUT : br0_8 
* INOUT : bl0_9 
* INOUT : br0_9 
* INOUT : bl0_10 
* INOUT : br0_10 
* INOUT : bl0_11 
* INOUT : br0_11 
* INOUT : bl0_12 
* INOUT : br0_12 
* INOUT : bl0_13 
* INOUT : br0_13 
* INOUT : bl0_14 
* INOUT : br0_14 
* INOUT : bl0_15 
* INOUT : br0_15 
* OUTPUT: dout_0 
* OUTPUT: dout_1 
* OUTPUT: dout_2 
* OUTPUT: dout_3 
* OUTPUT: dout_4 
* OUTPUT: dout_5 
* OUTPUT: dout_6 
* OUTPUT: dout_7 
* OUTPUT: dout_8 
* OUTPUT: dout_9 
* OUTPUT: dout_10 
* OUTPUT: dout_11 
* OUTPUT: dout_12 
* OUTPUT: dout_13 
* OUTPUT: dout_14 
* OUTPUT: dout_15 
* INPUT : din_0 
* INPUT : din_1 
* INPUT : din_2 
* INPUT : din_3 
* INPUT : din_4 
* INPUT : din_5 
* INPUT : din_6 
* INPUT : din_7 
* INPUT : din_8 
* INPUT : din_9 
* INPUT : din_10 
* INPUT : din_11 
* INPUT : din_12 
* INPUT : din_13 
* INPUT : din_14 
* INPUT : din_15 
* INPUT : s_en 
* INPUT : p_en_bar 
* INPUT : w_en 
* INPUT : bank_wmask_0 
* INPUT : bank_wmask_1 
* POWER : vdd 
* GROUND: gnd 
Xprecharge_array0 rbl_bl rbl_br bl0_0 br0_0 bl0_1 br0_1 bl0_2 br0_2 bl0_3 br0_3 bl0_4 br0_4 bl0_5 br0_5 bl0_6 br0_6 bl0_7 br0_7 bl0_8 br0_8 bl0_9 br0_9 bl0_10 br0_10 bl0_11 br0_11 bl0_12 br0_12 bl0_13 br0_13 bl0_14 br0_14 bl0_15 br0_15 p_en_bar vdd precharge_array
Xsense_amp_array0 dout_0 bl0_0 br0_0 dout_1 bl0_1 br0_1 dout_2 bl0_2 br0_2 dout_3 bl0_3 br0_3 dout_4 bl0_4 br0_4 dout_5 bl0_5 br0_5 dout_6 bl0_6 br0_6 dout_7 bl0_7 br0_7 dout_8 bl0_8 br0_8 dout_9 bl0_9 br0_9 dout_10 bl0_10 br0_10 dout_11 bl0_11 br0_11 dout_12 bl0_12 br0_12 dout_13 bl0_13 br0_13 dout_14 bl0_14 br0_14 dout_15 bl0_15 br0_15 s_en vdd gnd sense_amp_array
Xwrite_driver_array0 din_0 din_1 din_2 din_3 din_4 din_5 din_6 din_7 din_8 din_9 din_10 din_11 din_12 din_13 din_14 din_15 bl0_0 br0_0 bl0_1 br0_1 bl0_2 br0_2 bl0_3 br0_3 bl0_4 br0_4 bl0_5 br0_5 bl0_6 br0_6 bl0_7 br0_7 bl0_8 br0_8 bl0_9 br0_9 bl0_10 br0_10 bl0_11 br0_11 bl0_12 br0_12 bl0_13 br0_13 bl0_14 br0_14 bl0_15 br0_15 wdriver_sel_0 wdriver_sel_1 vdd gnd write_driver_array
Xwrite_mask_and_array0 bank_wmask_0 bank_wmask_1 w_en wdriver_sel_0 wdriver_sel_1 vdd gnd write_mask_and_array
.ENDS port_data

.SUBCKT precharge_1 bl br en_bar vdd
* OUTPUT: bl 
* OUTPUT: br 
* INPUT : en_bar 
* POWER : vdd 
Mlower_pmos bl en_bar br vdd pshort m=1 w=0.55u l=0.15u 
Mupper_pmos1 bl en_bar vdd vdd pshort m=1 w=0.55u l=0.15u 
Mupper_pmos2 br en_bar vdd vdd pshort m=1 w=0.55u l=0.15u 
.ENDS precharge_1

.SUBCKT precharge_array_0 bl_0 br_0 bl_1 br_1 bl_2 br_2 bl_3 br_3 bl_4 br_4 bl_5 br_5 bl_6 br_6 bl_7 br_7 bl_8 br_8 bl_9 br_9 bl_10 br_10 bl_11 br_11 bl_12 br_12 bl_13 br_13 bl_14 br_14 bl_15 br_15 bl_16 br_16 en_bar vdd
* OUTPUT: bl_0 
* OUTPUT: br_0 
* OUTPUT: bl_1 
* OUTPUT: br_1 
* OUTPUT: bl_2 
* OUTPUT: br_2 
* OUTPUT: bl_3 
* OUTPUT: br_3 
* OUTPUT: bl_4 
* OUTPUT: br_4 
* OUTPUT: bl_5 
* OUTPUT: br_5 
* OUTPUT: bl_6 
* OUTPUT: br_6 
* OUTPUT: bl_7 
* OUTPUT: br_7 
* OUTPUT: bl_8 
* OUTPUT: br_8 
* OUTPUT: bl_9 
* OUTPUT: br_9 
* OUTPUT: bl_10 
* OUTPUT: br_10 
* OUTPUT: bl_11 
* OUTPUT: br_11 
* OUTPUT: bl_12 
* OUTPUT: br_12 
* OUTPUT: bl_13 
* OUTPUT: br_13 
* OUTPUT: bl_14 
* OUTPUT: br_14 
* OUTPUT: bl_15 
* OUTPUT: br_15 
* OUTPUT: bl_16 
* OUTPUT: br_16 
* INPUT : en_bar 
* POWER : vdd 
* cols: 17 size: 1 bl: bl1 br: br1
Xpre_column_0 bl_0 br_0 en_bar vdd precharge_1
Xpre_column_1 bl_1 br_1 en_bar vdd precharge_1
Xpre_column_2 bl_2 br_2 en_bar vdd precharge_1
Xpre_column_3 bl_3 br_3 en_bar vdd precharge_1
Xpre_column_4 bl_4 br_4 en_bar vdd precharge_1
Xpre_column_5 bl_5 br_5 en_bar vdd precharge_1
Xpre_column_6 bl_6 br_6 en_bar vdd precharge_1
Xpre_column_7 bl_7 br_7 en_bar vdd precharge_1
Xpre_column_8 bl_8 br_8 en_bar vdd precharge_1
Xpre_column_9 bl_9 br_9 en_bar vdd precharge_1
Xpre_column_10 bl_10 br_10 en_bar vdd precharge_1
Xpre_column_11 bl_11 br_11 en_bar vdd precharge_1
Xpre_column_12 bl_12 br_12 en_bar vdd precharge_1
Xpre_column_13 bl_13 br_13 en_bar vdd precharge_1
Xpre_column_14 bl_14 br_14 en_bar vdd precharge_1
Xpre_column_15 bl_15 br_15 en_bar vdd precharge_1
Xpre_column_16 bl_16 br_16 en_bar vdd precharge_1
.ENDS precharge_array_0

.SUBCKT port_data_0 rbl_bl rbl_br bl1_0 br1_0 bl1_1 br1_1 bl1_2 br1_2 bl1_3 br1_3 bl1_4 br1_4 bl1_5 br1_5 bl1_6 br1_6 bl1_7 br1_7 bl1_8 br1_8 bl1_9 br1_9 bl1_10 br1_10 bl1_11 br1_11 bl1_12 br1_12 bl1_13 br1_13 bl1_14 br1_14 bl1_15 br1_15 dout_0 dout_1 dout_2 dout_3 dout_4 dout_5 dout_6 dout_7 dout_8 dout_9 dout_10 dout_11 dout_12 dout_13 dout_14 dout_15 s_en p_en_bar vdd gnd
* INOUT : rbl_bl 
* INOUT : rbl_br 
* INOUT : bl1_0 
* INOUT : br1_0 
* INOUT : bl1_1 
* INOUT : br1_1 
* INOUT : bl1_2 
* INOUT : br1_2 
* INOUT : bl1_3 
* INOUT : br1_3 
* INOUT : bl1_4 
* INOUT : br1_4 
* INOUT : bl1_5 
* INOUT : br1_5 
* INOUT : bl1_6 
* INOUT : br1_6 
* INOUT : bl1_7 
* INOUT : br1_7 
* INOUT : bl1_8 
* INOUT : br1_8 
* INOUT : bl1_9 
* INOUT : br1_9 
* INOUT : bl1_10 
* INOUT : br1_10 
* INOUT : bl1_11 
* INOUT : br1_11 
* INOUT : bl1_12 
* INOUT : br1_12 
* INOUT : bl1_13 
* INOUT : br1_13 
* INOUT : bl1_14 
* INOUT : br1_14 
* INOUT : bl1_15 
* INOUT : br1_15 
* OUTPUT: dout_0 
* OUTPUT: dout_1 
* OUTPUT: dout_2 
* OUTPUT: dout_3 
* OUTPUT: dout_4 
* OUTPUT: dout_5 
* OUTPUT: dout_6 
* OUTPUT: dout_7 
* OUTPUT: dout_8 
* OUTPUT: dout_9 
* OUTPUT: dout_10 
* OUTPUT: dout_11 
* OUTPUT: dout_12 
* OUTPUT: dout_13 
* OUTPUT: dout_14 
* OUTPUT: dout_15 
* INPUT : s_en 
* INPUT : p_en_bar 
* POWER : vdd 
* GROUND: gnd 
Xprecharge_array1 bl1_0 br1_0 bl1_1 br1_1 bl1_2 br1_2 bl1_3 br1_3 bl1_4 br1_4 bl1_5 br1_5 bl1_6 br1_6 bl1_7 br1_7 bl1_8 br1_8 bl1_9 br1_9 bl1_10 br1_10 bl1_11 br1_11 bl1_12 br1_12 bl1_13 br1_13 bl1_14 br1_14 bl1_15 br1_15 rbl_bl rbl_br p_en_bar vdd precharge_array_0
Xsense_amp_array1 dout_0 bl1_0 br1_0 dout_1 bl1_1 br1_1 dout_2 bl1_2 br1_2 dout_3 bl1_3 br1_3 dout_4 bl1_4 br1_4 dout_5 bl1_5 br1_5 dout_6 bl1_6 br1_6 dout_7 bl1_7 br1_7 dout_8 bl1_8 br1_8 dout_9 bl1_9 br1_9 dout_10 bl1_10 br1_10 dout_11 bl1_11 br1_11 dout_12 bl1_12 br1_12 dout_13 bl1_13 br1_13 dout_14 bl1_14 br1_14 dout_15 bl1_15 br1_15 s_en vdd gnd sense_amp_array
.ENDS port_data_0
* NGSPICE file created from nand2_dec.ext - technology: EFS8A


* Top level circuit nand2_dec
.subckt nand2_dec A B Z vdd gnd

M1001 Z B vdd vdd pshort W=1.12u L=0.15u m=1
M1002 vdd A Z vdd pshort W=1.12u L=0.15u m=1
M1000 Z A a_n722_276# gnd nshort W=0.74u L=0.15u m=1
M1003 a_n722_276# B gnd gnd nshort W=0.74u L=0.15u m=1
.ends


* ptx M{0} {1} nshort m=1 w=0.36u l=0.15u pd=1.02u ps=1.02u as=0.14p ad=0.14p

* ptx M{0} {1} pshort m=1 w=1.12u l=0.15u pd=2.54u ps=2.54u as=0.42p ad=0.42p

.SUBCKT pinv_dec A Z vdd gnd
* INPUT : A 
* OUTPUT: Z 
* POWER : vdd 
* GROUND: gnd 
Mpinv_pmos Z A vdd vdd pshort m=1 w=1.12u l=0.15u 
Mpinv_nmos Z A gnd gnd nshort m=1 w=0.36u l=0.15u 
.ENDS pinv_dec

.SUBCKT and2_dec A B Z vdd gnd
* INPUT : A 
* INPUT : B 
* OUTPUT: Z 
* POWER : vdd 
* GROUND: gnd 
* size: 1
Xpand2_dec_nand A B zb_int vdd gnd nand2_dec
Xpand2_dec_inv zb_int Z vdd gnd pinv_dec
.ENDS and2_dec
* NGSPICE file created from nand3_dec.ext - technology: EFS8A


* Top level circuit nand3_dec
.subckt nand3_dec A B C Z vdd gnd

M1001 Z A a_n346_328# gnd nshort W=0.74u L=0.15u m=1
M1002 a_n346_256# C gnd gnd nshort W=0.74u L=0.15u m=1
M1003 a_n346_328# B a_n346_256# gnd nshort W=0.74u L=0.15u m=1
M1000 Z B vdd vdd pshort W=1.12u L=0.15u m=1
M1004 Z A vdd vdd pshort W=1.12u L=0.15u m=1
M1005 Z C vdd vdd pshort W=1.12u L=0.15u m=1
.ends


.SUBCKT and3_dec A B C Z vdd gnd
* INPUT : A 
* INPUT : B 
* INPUT : C 
* OUTPUT: Z 
* POWER : vdd 
* GROUND: gnd 
* size: 1
Xpand3_dec_nand A B C zb_int vdd gnd nand3_dec
Xpand3_dec_inv zb_int Z vdd gnd pinv_dec
.ENDS and3_dec

.SUBCKT hierarchical_predecode2x4 in_0 in_1 out_0 out_1 out_2 out_3 vdd gnd
* INPUT : in_0 
* INPUT : in_1 
* OUTPUT: out_0 
* OUTPUT: out_1 
* OUTPUT: out_2 
* OUTPUT: out_3 
* POWER : vdd 
* GROUND: gnd 
Xpre_inv_0 in_0 inbar_0 vdd gnd pinv_dec
Xpre_inv_1 in_1 inbar_1 vdd gnd pinv_dec
XXpre2x4_and_0 inbar_0 inbar_1 out_0 vdd gnd and2_dec
XXpre2x4_and_1 in_0 inbar_1 out_1 vdd gnd and2_dec
XXpre2x4_and_2 inbar_0 in_1 out_2 vdd gnd and2_dec
XXpre2x4_and_3 in_0 in_1 out_3 vdd gnd and2_dec
.ENDS hierarchical_predecode2x4

.SUBCKT hierarchical_predecode3x8 in_0 in_1 in_2 out_0 out_1 out_2 out_3 out_4 out_5 out_6 out_7 vdd gnd
* INPUT : in_0 
* INPUT : in_1 
* INPUT : in_2 
* OUTPUT: out_0 
* OUTPUT: out_1 
* OUTPUT: out_2 
* OUTPUT: out_3 
* OUTPUT: out_4 
* OUTPUT: out_5 
* OUTPUT: out_6 
* OUTPUT: out_7 
* POWER : vdd 
* GROUND: gnd 
Xpre_inv_0 in_0 inbar_0 vdd gnd pinv_dec
Xpre_inv_1 in_1 inbar_1 vdd gnd pinv_dec
Xpre_inv_2 in_2 inbar_2 vdd gnd pinv_dec
XXpre3x8_and_0 inbar_0 inbar_1 inbar_2 out_0 vdd gnd and3_dec
XXpre3x8_and_1 in_0 inbar_1 inbar_2 out_1 vdd gnd and3_dec
XXpre3x8_and_2 inbar_0 in_1 inbar_2 out_2 vdd gnd and3_dec
XXpre3x8_and_3 in_0 in_1 inbar_2 out_3 vdd gnd and3_dec
XXpre3x8_and_4 inbar_0 inbar_1 in_2 out_4 vdd gnd and3_dec
XXpre3x8_and_5 in_0 inbar_1 in_2 out_5 vdd gnd and3_dec
XXpre3x8_and_6 inbar_0 in_1 in_2 out_6 vdd gnd and3_dec
XXpre3x8_and_7 in_0 in_1 in_2 out_7 vdd gnd and3_dec
.ENDS hierarchical_predecode3x8

.SUBCKT hierarchical_decoder addr_0 addr_1 addr_2 addr_3 decode_0 decode_1 decode_2 decode_3 decode_4 decode_5 decode_6 decode_7 decode_8 decode_9 decode_10 decode_11 decode_12 decode_13 decode_14 decode_15 vdd gnd
* INPUT : addr_0 
* INPUT : addr_1 
* INPUT : addr_2 
* INPUT : addr_3 
* OUTPUT: decode_0 
* OUTPUT: decode_1 
* OUTPUT: decode_2 
* OUTPUT: decode_3 
* OUTPUT: decode_4 
* OUTPUT: decode_5 
* OUTPUT: decode_6 
* OUTPUT: decode_7 
* OUTPUT: decode_8 
* OUTPUT: decode_9 
* OUTPUT: decode_10 
* OUTPUT: decode_11 
* OUTPUT: decode_12 
* OUTPUT: decode_13 
* OUTPUT: decode_14 
* OUTPUT: decode_15 
* POWER : vdd 
* GROUND: gnd 
Xpre_0 addr_0 addr_1 out_0 out_1 out_2 out_3 vdd gnd hierarchical_predecode2x4
Xpre_1 addr_2 addr_3 out_4 out_5 out_6 out_7 vdd gnd hierarchical_predecode2x4
XDEC_AND_0 out_0 out_4 decode_0 vdd gnd and2_dec
XDEC_AND_4 out_0 out_5 decode_4 vdd gnd and2_dec
XDEC_AND_8 out_0 out_6 decode_8 vdd gnd and2_dec
XDEC_AND_12 out_0 out_7 decode_12 vdd gnd and2_dec
XDEC_AND_1 out_1 out_4 decode_1 vdd gnd and2_dec
XDEC_AND_5 out_1 out_5 decode_5 vdd gnd and2_dec
XDEC_AND_9 out_1 out_6 decode_9 vdd gnd and2_dec
XDEC_AND_13 out_1 out_7 decode_13 vdd gnd and2_dec
XDEC_AND_2 out_2 out_4 decode_2 vdd gnd and2_dec
XDEC_AND_6 out_2 out_5 decode_6 vdd gnd and2_dec
XDEC_AND_10 out_2 out_6 decode_10 vdd gnd and2_dec
XDEC_AND_14 out_2 out_7 decode_14 vdd gnd and2_dec
XDEC_AND_3 out_3 out_4 decode_3 vdd gnd and2_dec
XDEC_AND_7 out_3 out_5 decode_7 vdd gnd and2_dec
XDEC_AND_11 out_3 out_6 decode_11 vdd gnd and2_dec
XDEC_AND_15 out_3 out_7 decode_15 vdd gnd and2_dec
.ENDS hierarchical_decoder

* ptx M{0} {1} nshort m=1 w=7.0u l=0.15u pd=14.30u ps=14.30u as=2.62p ad=2.62p

* ptx M{0} {1} pshort m=1 w=7.0u l=0.15u pd=14.30u ps=14.30u as=2.62p ad=2.62p

.SUBCKT pinv_dec_0 A Z vdd gnd
* INPUT : A 
* OUTPUT: Z 
* POWER : vdd 
* GROUND: gnd 
Mpinv_pmos Z A vdd vdd pshort m=1 w=7.0u l=0.15u 
Mpinv_nmos Z A gnd gnd nshort m=1 w=7.0u l=0.15u 
.ENDS pinv_dec_0

.SUBCKT wordline_driver A B Z vdd gnd
* INPUT : A 
* INPUT : B 
* OUTPUT: Z 
* POWER : vdd 
* GROUND: gnd 
Xwld_nand A B zb_int vdd gnd nand2_dec
Xwl_driver zb_int Z vdd gnd pinv_dec_0
.ENDS wordline_driver

.SUBCKT wordline_driver_array in_0 in_1 in_2 in_3 in_4 in_5 in_6 in_7 in_8 in_9 in_10 in_11 in_12 in_13 in_14 in_15 wl_0 wl_1 wl_2 wl_3 wl_4 wl_5 wl_6 wl_7 wl_8 wl_9 wl_10 wl_11 wl_12 wl_13 wl_14 wl_15 en vdd gnd
* INPUT : in_0 
* INPUT : in_1 
* INPUT : in_2 
* INPUT : in_3 
* INPUT : in_4 
* INPUT : in_5 
* INPUT : in_6 
* INPUT : in_7 
* INPUT : in_8 
* INPUT : in_9 
* INPUT : in_10 
* INPUT : in_11 
* INPUT : in_12 
* INPUT : in_13 
* INPUT : in_14 
* INPUT : in_15 
* OUTPUT: wl_0 
* OUTPUT: wl_1 
* OUTPUT: wl_2 
* OUTPUT: wl_3 
* OUTPUT: wl_4 
* OUTPUT: wl_5 
* OUTPUT: wl_6 
* OUTPUT: wl_7 
* OUTPUT: wl_8 
* OUTPUT: wl_9 
* OUTPUT: wl_10 
* OUTPUT: wl_11 
* OUTPUT: wl_12 
* OUTPUT: wl_13 
* OUTPUT: wl_14 
* OUTPUT: wl_15 
* INPUT : en 
* POWER : vdd 
* GROUND: gnd 
* rows: 16 cols: 16
Xwl_driver_and0 in_0 en wl_0 vdd gnd wordline_driver
Xwl_driver_and1 in_1 en wl_1 vdd gnd wordline_driver
Xwl_driver_and2 in_2 en wl_2 vdd gnd wordline_driver
Xwl_driver_and3 in_3 en wl_3 vdd gnd wordline_driver
Xwl_driver_and4 in_4 en wl_4 vdd gnd wordline_driver
Xwl_driver_and5 in_5 en wl_5 vdd gnd wordline_driver
Xwl_driver_and6 in_6 en wl_6 vdd gnd wordline_driver
Xwl_driver_and7 in_7 en wl_7 vdd gnd wordline_driver
Xwl_driver_and8 in_8 en wl_8 vdd gnd wordline_driver
Xwl_driver_and9 in_9 en wl_9 vdd gnd wordline_driver
Xwl_driver_and10 in_10 en wl_10 vdd gnd wordline_driver
Xwl_driver_and11 in_11 en wl_11 vdd gnd wordline_driver
Xwl_driver_and12 in_12 en wl_12 vdd gnd wordline_driver
Xwl_driver_and13 in_13 en wl_13 vdd gnd wordline_driver
Xwl_driver_and14 in_14 en wl_14 vdd gnd wordline_driver
Xwl_driver_and15 in_15 en wl_15 vdd gnd wordline_driver
.ENDS wordline_driver_array

.SUBCKT port_address addr_0 addr_1 addr_2 addr_3 wl_en wl_0 wl_1 wl_2 wl_3 wl_4 wl_5 wl_6 wl_7 wl_8 wl_9 wl_10 wl_11 wl_12 wl_13 wl_14 wl_15 vdd gnd
* INPUT : addr_0 
* INPUT : addr_1 
* INPUT : addr_2 
* INPUT : addr_3 
* INPUT : wl_en 
* OUTPUT: wl_0 
* OUTPUT: wl_1 
* OUTPUT: wl_2 
* OUTPUT: wl_3 
* OUTPUT: wl_4 
* OUTPUT: wl_5 
* OUTPUT: wl_6 
* OUTPUT: wl_7 
* OUTPUT: wl_8 
* OUTPUT: wl_9 
* OUTPUT: wl_10 
* OUTPUT: wl_11 
* OUTPUT: wl_12 
* OUTPUT: wl_13 
* OUTPUT: wl_14 
* OUTPUT: wl_15 
* POWER : vdd 
* GROUND: gnd 
Xrow_decoder addr_0 addr_1 addr_2 addr_3 dec_out_0 dec_out_1 dec_out_2 dec_out_3 dec_out_4 dec_out_5 dec_out_6 dec_out_7 dec_out_8 dec_out_9 dec_out_10 dec_out_11 dec_out_12 dec_out_13 dec_out_14 dec_out_15 vdd gnd hierarchical_decoder
Xwordline_driver dec_out_0 dec_out_1 dec_out_2 dec_out_3 dec_out_4 dec_out_5 dec_out_6 dec_out_7 dec_out_8 dec_out_9 dec_out_10 dec_out_11 dec_out_12 dec_out_13 dec_out_14 dec_out_15 wl_0 wl_1 wl_2 wl_3 wl_4 wl_5 wl_6 wl_7 wl_8 wl_9 wl_10 wl_11 wl_12 wl_13 wl_14 wl_15 wl_en vdd gnd wordline_driver_array
.ENDS port_address

.SUBCKT cell_1rw_1r bl0 br0 bl1 br1 wl0 wl1 vdd gnd
** N=11 EP=8 IP=0 FDC=16
*.SEEDPROM

* Bitcell Core
M0 Q wl1 bl1 gnd npd W=0.21u L=0.15u m=1
M1 gnd Q_bar Q gnd npd W=0.21u L=0.15u m=1
M2 gnd Q_bar Q gnd npd W=0.21u L=0.15u m=1
M3 bl0 wl0 Q gnd npd W=0.21u L=0.15u m=1
M4 Q_bar wl1 br1 gnd npd W=0.21u L=0.15u m=1
M5 gnd Q Q_bar gnd npd W=0.21u L=0.15u m=1
M6 gnd Q Q_bar gnd npd W=0.21u L=0.15u m=1
M7 br0 wl0 Q_bar gnd npd W=0.21u L=0.15u m=1
M8 vdd Q Q_bar vdd ppu W=0.14u L=0.15u m=1
M9 Q Q_bar vdd vdd ppu W=0.14u L=0.15u m=1

* drainOnly PMOS
M10 Q_bar wl1 Q_bar vdd ppu W=0.14u L=0.08u m=1
M11 Q wl0 Q vdd ppu W=0.14u L=0.08u m=1

* drainOnly NMOS
M12 bl1 gnd bl1 gnd npd W=0.21u L=0.08u m=1
M14 br1 gnd br1 gnd npd W=0.21u L=0.08u m=1

.ENDS
