**************************************************
* OpenRAM generated memory.
* Words: 128
* Data bits: 64
* Banks: 1
* Column mux: 2:1
* Trimmed: False
* LVS: False
**************************************************
*********************** "dff" ******************************
* Positive edge-triggered FF
.SUBCKT dff D Q clk vdd gnd

* SPICE3 file created from dff.ext - technology: scmos

M1000 vdd clk a_24_24# vdd p w=8u l=0.4u
M1001 a_84_296# D vdd vdd p w=4u l=0.4u
M1002 a_104_24# clk a_84_296# vdd p w=4u l=0.4u
M1003 a_140_296# a_24_24# a_104_24# vdd p w=4u l=0.4u
M1004 vdd a_152_16# a_140_296# vdd p w=4u l=0.4u
M1005 a_152_16# a_104_24# vdd vdd p w=4u l=0.4u
M1006 a_260_296# a_152_16# vdd vdd p w=4u l=0.4u
M1007 a_280_24# a_24_24# a_260_296# vdd p w=4u l=0.4u
M1008 a_320_336# clk a_280_24# vdd p w=2u l=0.4u
M1009 vdd Q a_320_336# vdd p w=2u l=0.4u
M1010 gnd clk a_24_24# gnd n w=4u l=0.4u
M1011 Q a_280_24# vdd vdd p w=8u l=0.4u
M1012 a_84_24# D gnd gnd n w=2u l=0.4u
M1013 a_104_24# a_24_24# a_84_24# gnd n w=2u l=0.4u
M1014 a_140_24# clk a_104_24# gnd n w=2u l=0.4u
M1015 gnd a_152_16# a_140_24# gnd n w=2u l=0.4u
M1016 a_152_16# a_104_24# gnd gnd n w=2u l=0.4u
M1017 a_260_24# a_152_16# gnd gnd n w=2u l=0.4u
M1018 a_280_24# clk a_260_24# gnd n w=2u l=0.4u
M1019 a_320_24# a_24_24# a_280_24# gnd n w=2u l=0.4u
M1020 gnd Q a_320_24# gnd n w=2u l=0.4u
M1021 Q a_280_24# gnd gnd n w=4u l=0.4u

.ENDS

.SUBCKT row_addr_dff din_0 din_1 din_2 din_3 din_4 din_5 dout_0 dout_1 dout_2 dout_3 dout_4 dout_5 clk vdd gnd
*.PININFO din_0:I din_1:I din_2:I din_3:I din_4:I din_5:I dout_0:O dout_1:O dout_2:O dout_3:O dout_4:O dout_5:O clk:I vdd:B gnd:B
* INPUT : din_0 
* INPUT : din_1 
* INPUT : din_2 
* INPUT : din_3 
* INPUT : din_4 
* INPUT : din_5 
* OUTPUT: dout_0 
* OUTPUT: dout_1 
* OUTPUT: dout_2 
* OUTPUT: dout_3 
* OUTPUT: dout_4 
* OUTPUT: dout_5 
* INPUT : clk 
* POWER : vdd 
* GROUND: gnd 
* rows: 6 cols: 1
Xdff_r0_c0 din_0 dout_0 clk vdd gnd dff
Xdff_r1_c0 din_1 dout_1 clk vdd gnd dff
Xdff_r2_c0 din_2 dout_2 clk vdd gnd dff
Xdff_r3_c0 din_3 dout_3 clk vdd gnd dff
Xdff_r4_c0 din_4 dout_4 clk vdd gnd dff
Xdff_r5_c0 din_5 dout_5 clk vdd gnd dff
.ENDS row_addr_dff

.SUBCKT col_addr_dff din_0 dout_0 clk vdd gnd
*.PININFO din_0:I dout_0:O clk:I vdd:B gnd:B
* INPUT : din_0 
* OUTPUT: dout_0 
* INPUT : clk 
* POWER : vdd 
* GROUND: gnd 
* rows: 1 cols: 1
Xdff_r0_c0 din_0 dout_0 clk vdd gnd dff
.ENDS col_addr_dff

.SUBCKT data_dff din_0 din_1 din_2 din_3 din_4 din_5 din_6 din_7 din_8 din_9 din_10 din_11 din_12 din_13 din_14 din_15 din_16 din_17 din_18 din_19 din_20 din_21 din_22 din_23 din_24 din_25 din_26 din_27 din_28 din_29 din_30 din_31 din_32 din_33 din_34 din_35 din_36 din_37 din_38 din_39 din_40 din_41 din_42 din_43 din_44 din_45 din_46 din_47 din_48 din_49 din_50 din_51 din_52 din_53 din_54 din_55 din_56 din_57 din_58 din_59 din_60 din_61 din_62 din_63 dout_0 dout_1 dout_2 dout_3 dout_4 dout_5 dout_6 dout_7 dout_8 dout_9 dout_10 dout_11 dout_12 dout_13 dout_14 dout_15 dout_16 dout_17 dout_18 dout_19 dout_20 dout_21 dout_22 dout_23 dout_24 dout_25 dout_26 dout_27 dout_28 dout_29 dout_30 dout_31 dout_32 dout_33 dout_34 dout_35 dout_36 dout_37 dout_38 dout_39 dout_40 dout_41 dout_42 dout_43 dout_44 dout_45 dout_46 dout_47 dout_48 dout_49 dout_50 dout_51 dout_52 dout_53 dout_54 dout_55 dout_56 dout_57 dout_58 dout_59 dout_60 dout_61 dout_62 dout_63 clk vdd gnd
*.PININFO din_0:I din_1:I din_2:I din_3:I din_4:I din_5:I din_6:I din_7:I din_8:I din_9:I din_10:I din_11:I din_12:I din_13:I din_14:I din_15:I din_16:I din_17:I din_18:I din_19:I din_20:I din_21:I din_22:I din_23:I din_24:I din_25:I din_26:I din_27:I din_28:I din_29:I din_30:I din_31:I din_32:I din_33:I din_34:I din_35:I din_36:I din_37:I din_38:I din_39:I din_40:I din_41:I din_42:I din_43:I din_44:I din_45:I din_46:I din_47:I din_48:I din_49:I din_50:I din_51:I din_52:I din_53:I din_54:I din_55:I din_56:I din_57:I din_58:I din_59:I din_60:I din_61:I din_62:I din_63:I dout_0:O dout_1:O dout_2:O dout_3:O dout_4:O dout_5:O dout_6:O dout_7:O dout_8:O dout_9:O dout_10:O dout_11:O dout_12:O dout_13:O dout_14:O dout_15:O dout_16:O dout_17:O dout_18:O dout_19:O dout_20:O dout_21:O dout_22:O dout_23:O dout_24:O dout_25:O dout_26:O dout_27:O dout_28:O dout_29:O dout_30:O dout_31:O dout_32:O dout_33:O dout_34:O dout_35:O dout_36:O dout_37:O dout_38:O dout_39:O dout_40:O dout_41:O dout_42:O dout_43:O dout_44:O dout_45:O dout_46:O dout_47:O dout_48:O dout_49:O dout_50:O dout_51:O dout_52:O dout_53:O dout_54:O dout_55:O dout_56:O dout_57:O dout_58:O dout_59:O dout_60:O dout_61:O dout_62:O dout_63:O clk:I vdd:B gnd:B
* INPUT : din_0 
* INPUT : din_1 
* INPUT : din_2 
* INPUT : din_3 
* INPUT : din_4 
* INPUT : din_5 
* INPUT : din_6 
* INPUT : din_7 
* INPUT : din_8 
* INPUT : din_9 
* INPUT : din_10 
* INPUT : din_11 
* INPUT : din_12 
* INPUT : din_13 
* INPUT : din_14 
* INPUT : din_15 
* INPUT : din_16 
* INPUT : din_17 
* INPUT : din_18 
* INPUT : din_19 
* INPUT : din_20 
* INPUT : din_21 
* INPUT : din_22 
* INPUT : din_23 
* INPUT : din_24 
* INPUT : din_25 
* INPUT : din_26 
* INPUT : din_27 
* INPUT : din_28 
* INPUT : din_29 
* INPUT : din_30 
* INPUT : din_31 
* INPUT : din_32 
* INPUT : din_33 
* INPUT : din_34 
* INPUT : din_35 
* INPUT : din_36 
* INPUT : din_37 
* INPUT : din_38 
* INPUT : din_39 
* INPUT : din_40 
* INPUT : din_41 
* INPUT : din_42 
* INPUT : din_43 
* INPUT : din_44 
* INPUT : din_45 
* INPUT : din_46 
* INPUT : din_47 
* INPUT : din_48 
* INPUT : din_49 
* INPUT : din_50 
* INPUT : din_51 
* INPUT : din_52 
* INPUT : din_53 
* INPUT : din_54 
* INPUT : din_55 
* INPUT : din_56 
* INPUT : din_57 
* INPUT : din_58 
* INPUT : din_59 
* INPUT : din_60 
* INPUT : din_61 
* INPUT : din_62 
* INPUT : din_63 
* OUTPUT: dout_0 
* OUTPUT: dout_1 
* OUTPUT: dout_2 
* OUTPUT: dout_3 
* OUTPUT: dout_4 
* OUTPUT: dout_5 
* OUTPUT: dout_6 
* OUTPUT: dout_7 
* OUTPUT: dout_8 
* OUTPUT: dout_9 
* OUTPUT: dout_10 
* OUTPUT: dout_11 
* OUTPUT: dout_12 
* OUTPUT: dout_13 
* OUTPUT: dout_14 
* OUTPUT: dout_15 
* OUTPUT: dout_16 
* OUTPUT: dout_17 
* OUTPUT: dout_18 
* OUTPUT: dout_19 
* OUTPUT: dout_20 
* OUTPUT: dout_21 
* OUTPUT: dout_22 
* OUTPUT: dout_23 
* OUTPUT: dout_24 
* OUTPUT: dout_25 
* OUTPUT: dout_26 
* OUTPUT: dout_27 
* OUTPUT: dout_28 
* OUTPUT: dout_29 
* OUTPUT: dout_30 
* OUTPUT: dout_31 
* OUTPUT: dout_32 
* OUTPUT: dout_33 
* OUTPUT: dout_34 
* OUTPUT: dout_35 
* OUTPUT: dout_36 
* OUTPUT: dout_37 
* OUTPUT: dout_38 
* OUTPUT: dout_39 
* OUTPUT: dout_40 
* OUTPUT: dout_41 
* OUTPUT: dout_42 
* OUTPUT: dout_43 
* OUTPUT: dout_44 
* OUTPUT: dout_45 
* OUTPUT: dout_46 
* OUTPUT: dout_47 
* OUTPUT: dout_48 
* OUTPUT: dout_49 
* OUTPUT: dout_50 
* OUTPUT: dout_51 
* OUTPUT: dout_52 
* OUTPUT: dout_53 
* OUTPUT: dout_54 
* OUTPUT: dout_55 
* OUTPUT: dout_56 
* OUTPUT: dout_57 
* OUTPUT: dout_58 
* OUTPUT: dout_59 
* OUTPUT: dout_60 
* OUTPUT: dout_61 
* OUTPUT: dout_62 
* OUTPUT: dout_63 
* INPUT : clk 
* POWER : vdd 
* GROUND: gnd 
* rows: 1 cols: 64
Xdff_r0_c0 din_0 dout_0 clk vdd gnd dff
Xdff_r0_c1 din_1 dout_1 clk vdd gnd dff
Xdff_r0_c2 din_2 dout_2 clk vdd gnd dff
Xdff_r0_c3 din_3 dout_3 clk vdd gnd dff
Xdff_r0_c4 din_4 dout_4 clk vdd gnd dff
Xdff_r0_c5 din_5 dout_5 clk vdd gnd dff
Xdff_r0_c6 din_6 dout_6 clk vdd gnd dff
Xdff_r0_c7 din_7 dout_7 clk vdd gnd dff
Xdff_r0_c8 din_8 dout_8 clk vdd gnd dff
Xdff_r0_c9 din_9 dout_9 clk vdd gnd dff
Xdff_r0_c10 din_10 dout_10 clk vdd gnd dff
Xdff_r0_c11 din_11 dout_11 clk vdd gnd dff
Xdff_r0_c12 din_12 dout_12 clk vdd gnd dff
Xdff_r0_c13 din_13 dout_13 clk vdd gnd dff
Xdff_r0_c14 din_14 dout_14 clk vdd gnd dff
Xdff_r0_c15 din_15 dout_15 clk vdd gnd dff
Xdff_r0_c16 din_16 dout_16 clk vdd gnd dff
Xdff_r0_c17 din_17 dout_17 clk vdd gnd dff
Xdff_r0_c18 din_18 dout_18 clk vdd gnd dff
Xdff_r0_c19 din_19 dout_19 clk vdd gnd dff
Xdff_r0_c20 din_20 dout_20 clk vdd gnd dff
Xdff_r0_c21 din_21 dout_21 clk vdd gnd dff
Xdff_r0_c22 din_22 dout_22 clk vdd gnd dff
Xdff_r0_c23 din_23 dout_23 clk vdd gnd dff
Xdff_r0_c24 din_24 dout_24 clk vdd gnd dff
Xdff_r0_c25 din_25 dout_25 clk vdd gnd dff
Xdff_r0_c26 din_26 dout_26 clk vdd gnd dff
Xdff_r0_c27 din_27 dout_27 clk vdd gnd dff
Xdff_r0_c28 din_28 dout_28 clk vdd gnd dff
Xdff_r0_c29 din_29 dout_29 clk vdd gnd dff
Xdff_r0_c30 din_30 dout_30 clk vdd gnd dff
Xdff_r0_c31 din_31 dout_31 clk vdd gnd dff
Xdff_r0_c32 din_32 dout_32 clk vdd gnd dff
Xdff_r0_c33 din_33 dout_33 clk vdd gnd dff
Xdff_r0_c34 din_34 dout_34 clk vdd gnd dff
Xdff_r0_c35 din_35 dout_35 clk vdd gnd dff
Xdff_r0_c36 din_36 dout_36 clk vdd gnd dff
Xdff_r0_c37 din_37 dout_37 clk vdd gnd dff
Xdff_r0_c38 din_38 dout_38 clk vdd gnd dff
Xdff_r0_c39 din_39 dout_39 clk vdd gnd dff
Xdff_r0_c40 din_40 dout_40 clk vdd gnd dff
Xdff_r0_c41 din_41 dout_41 clk vdd gnd dff
Xdff_r0_c42 din_42 dout_42 clk vdd gnd dff
Xdff_r0_c43 din_43 dout_43 clk vdd gnd dff
Xdff_r0_c44 din_44 dout_44 clk vdd gnd dff
Xdff_r0_c45 din_45 dout_45 clk vdd gnd dff
Xdff_r0_c46 din_46 dout_46 clk vdd gnd dff
Xdff_r0_c47 din_47 dout_47 clk vdd gnd dff
Xdff_r0_c48 din_48 dout_48 clk vdd gnd dff
Xdff_r0_c49 din_49 dout_49 clk vdd gnd dff
Xdff_r0_c50 din_50 dout_50 clk vdd gnd dff
Xdff_r0_c51 din_51 dout_51 clk vdd gnd dff
Xdff_r0_c52 din_52 dout_52 clk vdd gnd dff
Xdff_r0_c53 din_53 dout_53 clk vdd gnd dff
Xdff_r0_c54 din_54 dout_54 clk vdd gnd dff
Xdff_r0_c55 din_55 dout_55 clk vdd gnd dff
Xdff_r0_c56 din_56 dout_56 clk vdd gnd dff
Xdff_r0_c57 din_57 dout_57 clk vdd gnd dff
Xdff_r0_c58 din_58 dout_58 clk vdd gnd dff
Xdff_r0_c59 din_59 dout_59 clk vdd gnd dff
Xdff_r0_c60 din_60 dout_60 clk vdd gnd dff
Xdff_r0_c61 din_61 dout_61 clk vdd gnd dff
Xdff_r0_c62 din_62 dout_62 clk vdd gnd dff
Xdff_r0_c63 din_63 dout_63 clk vdd gnd dff
.ENDS data_dff

* spice ptx M{0} {1} n m=1 w=1.6u l=0.4u pd=4.00u ps=4.00u as=1.60p ad=1.60p

* spice ptx M{0} {1} p m=1 w=3.2u l=0.4u pd=7.20u ps=7.20u as=3.20p ad=3.20p

.SUBCKT pinv_2 A Z vdd gnd
*.PININFO A:I Z:O vdd:B gnd:B
* INPUT : A 
* OUTPUT: Z 
* POWER : vdd 
* GROUND: gnd 
Mpinv_pmos Z A vdd vdd p m=1 w=3.2u l=0.4u pd=7.20u ps=7.20u as=3.20p ad=3.20p
Mpinv_nmos Z A gnd gnd n m=1 w=1.6u l=0.4u pd=4.00u ps=4.00u as=1.60p ad=1.60p
.ENDS pinv_2

* spice ptx M{0} {1} p m=1 w=6.4u l=0.4u pd=13.60u ps=13.60u as=6.40p ad=6.40p

* spice ptx M{0} {1} n m=1 w=3.2u l=0.4u pd=7.20u ps=7.20u as=3.20p ad=3.20p

.SUBCKT pinv_3 A Z vdd gnd
*.PININFO A:I Z:O vdd:B gnd:B
* INPUT : A 
* OUTPUT: Z 
* POWER : vdd 
* GROUND: gnd 
Mpinv_pmos Z A vdd vdd p m=1 w=6.4u l=0.4u pd=13.60u ps=13.60u as=6.40p ad=6.40p
Mpinv_nmos Z A gnd gnd n m=1 w=3.2u l=0.4u pd=7.20u ps=7.20u as=3.20p ad=3.20p
.ENDS pinv_3

* spice ptx M{0} {1} n m=1 w=0.8u l=0.4u pd=2.40u ps=2.40u as=0.80p ad=0.80p

* spice ptx M{0} {1} p m=1 w=1.6u l=0.4u pd=4.00u ps=4.00u as=1.60p ad=1.60p

.SUBCKT pinv_1 A Z vdd gnd
*.PININFO A:I Z:O vdd:B gnd:B
* INPUT : A 
* OUTPUT: Z 
* POWER : vdd 
* GROUND: gnd 
Mpinv_pmos Z A vdd vdd p m=1 w=1.6u l=0.4u pd=4.00u ps=4.00u as=1.60p ad=1.60p
Mpinv_nmos Z A gnd gnd n m=1 w=0.8u l=0.4u pd=2.40u ps=2.40u as=0.80p ad=0.80p
.ENDS pinv_1

.SUBCKT pinvbuf A Zb Z vdd gnd
*.PININFO A:B Zb:B Z:B vdd:B gnd:B
* INOUT : A 
* INOUT : Zb 
* INOUT : Z 
* INOUT : vdd 
* INOUT : gnd 
Xbuf_inv1 A zb_int vdd gnd pinv_1
Xbuf_inv2 zb_int z_int vdd gnd pinv_2
Xbuf_inv3 z_int Zb vdd gnd pinv_3
Xbuf_inv4 zb_int Z vdd gnd pinv_3
.ENDS pinvbuf

*********************** "dummy_cell_1rw" ******************************
.SUBCKT dummy_cell_1rw bl br wl vdd gnd

* Inverter 1
M1000 Q Q_bar vdd vdd p w=0.6u l=0.8u
M1002 Q Q_bar gnd gnd n w=1.6u l=0.4u

* Inverter 2
M1001 vdd Q Q_bar vdd p w=0.6u l=0.8u
M1003 gnd Q Q_bar gnd n w=1.6u l=0.4u

* Access transistors
M1004 Q wl bl_noconn gnd n w=0.8u l=0.4u
M1005 Q_bar wl br_noconn gnd n w=0.8u l=0.4u

.ENDS

.SUBCKT dummy_array_2 bl_0_0 br_0_0 wl_0_0 wl_0_1 wl_0_2 wl_0_3 wl_0_4 wl_0_5 wl_0_6 wl_0_7 wl_0_8 wl_0_9 wl_0_10 wl_0_11 wl_0_12 wl_0_13 wl_0_14 wl_0_15 wl_0_16 wl_0_17 wl_0_18 wl_0_19 wl_0_20 wl_0_21 wl_0_22 wl_0_23 wl_0_24 wl_0_25 wl_0_26 wl_0_27 wl_0_28 wl_0_29 wl_0_30 wl_0_31 wl_0_32 wl_0_33 wl_0_34 wl_0_35 wl_0_36 wl_0_37 wl_0_38 wl_0_39 wl_0_40 wl_0_41 wl_0_42 wl_0_43 wl_0_44 wl_0_45 wl_0_46 wl_0_47 wl_0_48 wl_0_49 wl_0_50 wl_0_51 wl_0_52 wl_0_53 wl_0_54 wl_0_55 wl_0_56 wl_0_57 wl_0_58 wl_0_59 wl_0_60 wl_0_61 wl_0_62 wl_0_63 wl_0_64 wl_0_65 wl_0_66 vdd gnd
*.PININFO bl_0_0:B br_0_0:B wl_0_0:I wl_0_1:I wl_0_2:I wl_0_3:I wl_0_4:I wl_0_5:I wl_0_6:I wl_0_7:I wl_0_8:I wl_0_9:I wl_0_10:I wl_0_11:I wl_0_12:I wl_0_13:I wl_0_14:I wl_0_15:I wl_0_16:I wl_0_17:I wl_0_18:I wl_0_19:I wl_0_20:I wl_0_21:I wl_0_22:I wl_0_23:I wl_0_24:I wl_0_25:I wl_0_26:I wl_0_27:I wl_0_28:I wl_0_29:I wl_0_30:I wl_0_31:I wl_0_32:I wl_0_33:I wl_0_34:I wl_0_35:I wl_0_36:I wl_0_37:I wl_0_38:I wl_0_39:I wl_0_40:I wl_0_41:I wl_0_42:I wl_0_43:I wl_0_44:I wl_0_45:I wl_0_46:I wl_0_47:I wl_0_48:I wl_0_49:I wl_0_50:I wl_0_51:I wl_0_52:I wl_0_53:I wl_0_54:I wl_0_55:I wl_0_56:I wl_0_57:I wl_0_58:I wl_0_59:I wl_0_60:I wl_0_61:I wl_0_62:I wl_0_63:I wl_0_64:I wl_0_65:I wl_0_66:I vdd:B gnd:B
* INOUT : bl_0_0 
* INOUT : br_0_0 
* INPUT : wl_0_0 
* INPUT : wl_0_1 
* INPUT : wl_0_2 
* INPUT : wl_0_3 
* INPUT : wl_0_4 
* INPUT : wl_0_5 
* INPUT : wl_0_6 
* INPUT : wl_0_7 
* INPUT : wl_0_8 
* INPUT : wl_0_9 
* INPUT : wl_0_10 
* INPUT : wl_0_11 
* INPUT : wl_0_12 
* INPUT : wl_0_13 
* INPUT : wl_0_14 
* INPUT : wl_0_15 
* INPUT : wl_0_16 
* INPUT : wl_0_17 
* INPUT : wl_0_18 
* INPUT : wl_0_19 
* INPUT : wl_0_20 
* INPUT : wl_0_21 
* INPUT : wl_0_22 
* INPUT : wl_0_23 
* INPUT : wl_0_24 
* INPUT : wl_0_25 
* INPUT : wl_0_26 
* INPUT : wl_0_27 
* INPUT : wl_0_28 
* INPUT : wl_0_29 
* INPUT : wl_0_30 
* INPUT : wl_0_31 
* INPUT : wl_0_32 
* INPUT : wl_0_33 
* INPUT : wl_0_34 
* INPUT : wl_0_35 
* INPUT : wl_0_36 
* INPUT : wl_0_37 
* INPUT : wl_0_38 
* INPUT : wl_0_39 
* INPUT : wl_0_40 
* INPUT : wl_0_41 
* INPUT : wl_0_42 
* INPUT : wl_0_43 
* INPUT : wl_0_44 
* INPUT : wl_0_45 
* INPUT : wl_0_46 
* INPUT : wl_0_47 
* INPUT : wl_0_48 
* INPUT : wl_0_49 
* INPUT : wl_0_50 
* INPUT : wl_0_51 
* INPUT : wl_0_52 
* INPUT : wl_0_53 
* INPUT : wl_0_54 
* INPUT : wl_0_55 
* INPUT : wl_0_56 
* INPUT : wl_0_57 
* INPUT : wl_0_58 
* INPUT : wl_0_59 
* INPUT : wl_0_60 
* INPUT : wl_0_61 
* INPUT : wl_0_62 
* INPUT : wl_0_63 
* INPUT : wl_0_64 
* INPUT : wl_0_65 
* INPUT : wl_0_66 
* POWER : vdd 
* GROUND: gnd 
Xbit_r0_c0 bl_0_0 br_0_0 wl_0_0 vdd gnd dummy_cell_1rw
Xbit_r1_c0 bl_0_0 br_0_0 wl_0_1 vdd gnd dummy_cell_1rw
Xbit_r2_c0 bl_0_0 br_0_0 wl_0_2 vdd gnd dummy_cell_1rw
Xbit_r3_c0 bl_0_0 br_0_0 wl_0_3 vdd gnd dummy_cell_1rw
Xbit_r4_c0 bl_0_0 br_0_0 wl_0_4 vdd gnd dummy_cell_1rw
Xbit_r5_c0 bl_0_0 br_0_0 wl_0_5 vdd gnd dummy_cell_1rw
Xbit_r6_c0 bl_0_0 br_0_0 wl_0_6 vdd gnd dummy_cell_1rw
Xbit_r7_c0 bl_0_0 br_0_0 wl_0_7 vdd gnd dummy_cell_1rw
Xbit_r8_c0 bl_0_0 br_0_0 wl_0_8 vdd gnd dummy_cell_1rw
Xbit_r9_c0 bl_0_0 br_0_0 wl_0_9 vdd gnd dummy_cell_1rw
Xbit_r10_c0 bl_0_0 br_0_0 wl_0_10 vdd gnd dummy_cell_1rw
Xbit_r11_c0 bl_0_0 br_0_0 wl_0_11 vdd gnd dummy_cell_1rw
Xbit_r12_c0 bl_0_0 br_0_0 wl_0_12 vdd gnd dummy_cell_1rw
Xbit_r13_c0 bl_0_0 br_0_0 wl_0_13 vdd gnd dummy_cell_1rw
Xbit_r14_c0 bl_0_0 br_0_0 wl_0_14 vdd gnd dummy_cell_1rw
Xbit_r15_c0 bl_0_0 br_0_0 wl_0_15 vdd gnd dummy_cell_1rw
Xbit_r16_c0 bl_0_0 br_0_0 wl_0_16 vdd gnd dummy_cell_1rw
Xbit_r17_c0 bl_0_0 br_0_0 wl_0_17 vdd gnd dummy_cell_1rw
Xbit_r18_c0 bl_0_0 br_0_0 wl_0_18 vdd gnd dummy_cell_1rw
Xbit_r19_c0 bl_0_0 br_0_0 wl_0_19 vdd gnd dummy_cell_1rw
Xbit_r20_c0 bl_0_0 br_0_0 wl_0_20 vdd gnd dummy_cell_1rw
Xbit_r21_c0 bl_0_0 br_0_0 wl_0_21 vdd gnd dummy_cell_1rw
Xbit_r22_c0 bl_0_0 br_0_0 wl_0_22 vdd gnd dummy_cell_1rw
Xbit_r23_c0 bl_0_0 br_0_0 wl_0_23 vdd gnd dummy_cell_1rw
Xbit_r24_c0 bl_0_0 br_0_0 wl_0_24 vdd gnd dummy_cell_1rw
Xbit_r25_c0 bl_0_0 br_0_0 wl_0_25 vdd gnd dummy_cell_1rw
Xbit_r26_c0 bl_0_0 br_0_0 wl_0_26 vdd gnd dummy_cell_1rw
Xbit_r27_c0 bl_0_0 br_0_0 wl_0_27 vdd gnd dummy_cell_1rw
Xbit_r28_c0 bl_0_0 br_0_0 wl_0_28 vdd gnd dummy_cell_1rw
Xbit_r29_c0 bl_0_0 br_0_0 wl_0_29 vdd gnd dummy_cell_1rw
Xbit_r30_c0 bl_0_0 br_0_0 wl_0_30 vdd gnd dummy_cell_1rw
Xbit_r31_c0 bl_0_0 br_0_0 wl_0_31 vdd gnd dummy_cell_1rw
Xbit_r32_c0 bl_0_0 br_0_0 wl_0_32 vdd gnd dummy_cell_1rw
Xbit_r33_c0 bl_0_0 br_0_0 wl_0_33 vdd gnd dummy_cell_1rw
Xbit_r34_c0 bl_0_0 br_0_0 wl_0_34 vdd gnd dummy_cell_1rw
Xbit_r35_c0 bl_0_0 br_0_0 wl_0_35 vdd gnd dummy_cell_1rw
Xbit_r36_c0 bl_0_0 br_0_0 wl_0_36 vdd gnd dummy_cell_1rw
Xbit_r37_c0 bl_0_0 br_0_0 wl_0_37 vdd gnd dummy_cell_1rw
Xbit_r38_c0 bl_0_0 br_0_0 wl_0_38 vdd gnd dummy_cell_1rw
Xbit_r39_c0 bl_0_0 br_0_0 wl_0_39 vdd gnd dummy_cell_1rw
Xbit_r40_c0 bl_0_0 br_0_0 wl_0_40 vdd gnd dummy_cell_1rw
Xbit_r41_c0 bl_0_0 br_0_0 wl_0_41 vdd gnd dummy_cell_1rw
Xbit_r42_c0 bl_0_0 br_0_0 wl_0_42 vdd gnd dummy_cell_1rw
Xbit_r43_c0 bl_0_0 br_0_0 wl_0_43 vdd gnd dummy_cell_1rw
Xbit_r44_c0 bl_0_0 br_0_0 wl_0_44 vdd gnd dummy_cell_1rw
Xbit_r45_c0 bl_0_0 br_0_0 wl_0_45 vdd gnd dummy_cell_1rw
Xbit_r46_c0 bl_0_0 br_0_0 wl_0_46 vdd gnd dummy_cell_1rw
Xbit_r47_c0 bl_0_0 br_0_0 wl_0_47 vdd gnd dummy_cell_1rw
Xbit_r48_c0 bl_0_0 br_0_0 wl_0_48 vdd gnd dummy_cell_1rw
Xbit_r49_c0 bl_0_0 br_0_0 wl_0_49 vdd gnd dummy_cell_1rw
Xbit_r50_c0 bl_0_0 br_0_0 wl_0_50 vdd gnd dummy_cell_1rw
Xbit_r51_c0 bl_0_0 br_0_0 wl_0_51 vdd gnd dummy_cell_1rw
Xbit_r52_c0 bl_0_0 br_0_0 wl_0_52 vdd gnd dummy_cell_1rw
Xbit_r53_c0 bl_0_0 br_0_0 wl_0_53 vdd gnd dummy_cell_1rw
Xbit_r54_c0 bl_0_0 br_0_0 wl_0_54 vdd gnd dummy_cell_1rw
Xbit_r55_c0 bl_0_0 br_0_0 wl_0_55 vdd gnd dummy_cell_1rw
Xbit_r56_c0 bl_0_0 br_0_0 wl_0_56 vdd gnd dummy_cell_1rw
Xbit_r57_c0 bl_0_0 br_0_0 wl_0_57 vdd gnd dummy_cell_1rw
Xbit_r58_c0 bl_0_0 br_0_0 wl_0_58 vdd gnd dummy_cell_1rw
Xbit_r59_c0 bl_0_0 br_0_0 wl_0_59 vdd gnd dummy_cell_1rw
Xbit_r60_c0 bl_0_0 br_0_0 wl_0_60 vdd gnd dummy_cell_1rw
Xbit_r61_c0 bl_0_0 br_0_0 wl_0_61 vdd gnd dummy_cell_1rw
Xbit_r62_c0 bl_0_0 br_0_0 wl_0_62 vdd gnd dummy_cell_1rw
Xbit_r63_c0 bl_0_0 br_0_0 wl_0_63 vdd gnd dummy_cell_1rw
Xbit_r64_c0 bl_0_0 br_0_0 wl_0_64 vdd gnd dummy_cell_1rw
Xbit_r65_c0 bl_0_0 br_0_0 wl_0_65 vdd gnd dummy_cell_1rw
Xbit_r66_c0 bl_0_0 br_0_0 wl_0_66 vdd gnd dummy_cell_1rw
.ENDS dummy_array_2

.SUBCKT dummy_array bl_0_0 br_0_0 bl_0_1 br_0_1 bl_0_2 br_0_2 bl_0_3 br_0_3 bl_0_4 br_0_4 bl_0_5 br_0_5 bl_0_6 br_0_6 bl_0_7 br_0_7 bl_0_8 br_0_8 bl_0_9 br_0_9 bl_0_10 br_0_10 bl_0_11 br_0_11 bl_0_12 br_0_12 bl_0_13 br_0_13 bl_0_14 br_0_14 bl_0_15 br_0_15 bl_0_16 br_0_16 bl_0_17 br_0_17 bl_0_18 br_0_18 bl_0_19 br_0_19 bl_0_20 br_0_20 bl_0_21 br_0_21 bl_0_22 br_0_22 bl_0_23 br_0_23 bl_0_24 br_0_24 bl_0_25 br_0_25 bl_0_26 br_0_26 bl_0_27 br_0_27 bl_0_28 br_0_28 bl_0_29 br_0_29 bl_0_30 br_0_30 bl_0_31 br_0_31 bl_0_32 br_0_32 bl_0_33 br_0_33 bl_0_34 br_0_34 bl_0_35 br_0_35 bl_0_36 br_0_36 bl_0_37 br_0_37 bl_0_38 br_0_38 bl_0_39 br_0_39 bl_0_40 br_0_40 bl_0_41 br_0_41 bl_0_42 br_0_42 bl_0_43 br_0_43 bl_0_44 br_0_44 bl_0_45 br_0_45 bl_0_46 br_0_46 bl_0_47 br_0_47 bl_0_48 br_0_48 bl_0_49 br_0_49 bl_0_50 br_0_50 bl_0_51 br_0_51 bl_0_52 br_0_52 bl_0_53 br_0_53 bl_0_54 br_0_54 bl_0_55 br_0_55 bl_0_56 br_0_56 bl_0_57 br_0_57 bl_0_58 br_0_58 bl_0_59 br_0_59 bl_0_60 br_0_60 bl_0_61 br_0_61 bl_0_62 br_0_62 bl_0_63 br_0_63 bl_0_64 br_0_64 bl_0_65 br_0_65 bl_0_66 br_0_66 bl_0_67 br_0_67 bl_0_68 br_0_68 bl_0_69 br_0_69 bl_0_70 br_0_70 bl_0_71 br_0_71 bl_0_72 br_0_72 bl_0_73 br_0_73 bl_0_74 br_0_74 bl_0_75 br_0_75 bl_0_76 br_0_76 bl_0_77 br_0_77 bl_0_78 br_0_78 bl_0_79 br_0_79 bl_0_80 br_0_80 bl_0_81 br_0_81 bl_0_82 br_0_82 bl_0_83 br_0_83 bl_0_84 br_0_84 bl_0_85 br_0_85 bl_0_86 br_0_86 bl_0_87 br_0_87 bl_0_88 br_0_88 bl_0_89 br_0_89 bl_0_90 br_0_90 bl_0_91 br_0_91 bl_0_92 br_0_92 bl_0_93 br_0_93 bl_0_94 br_0_94 bl_0_95 br_0_95 bl_0_96 br_0_96 bl_0_97 br_0_97 bl_0_98 br_0_98 bl_0_99 br_0_99 bl_0_100 br_0_100 bl_0_101 br_0_101 bl_0_102 br_0_102 bl_0_103 br_0_103 bl_0_104 br_0_104 bl_0_105 br_0_105 bl_0_106 br_0_106 bl_0_107 br_0_107 bl_0_108 br_0_108 bl_0_109 br_0_109 bl_0_110 br_0_110 bl_0_111 br_0_111 bl_0_112 br_0_112 bl_0_113 br_0_113 bl_0_114 br_0_114 bl_0_115 br_0_115 bl_0_116 br_0_116 bl_0_117 br_0_117 bl_0_118 br_0_118 bl_0_119 br_0_119 bl_0_120 br_0_120 bl_0_121 br_0_121 bl_0_122 br_0_122 bl_0_123 br_0_123 bl_0_124 br_0_124 bl_0_125 br_0_125 bl_0_126 br_0_126 bl_0_127 br_0_127 wl_0_0 vdd gnd
*.PININFO bl_0_0:B br_0_0:B bl_0_1:B br_0_1:B bl_0_2:B br_0_2:B bl_0_3:B br_0_3:B bl_0_4:B br_0_4:B bl_0_5:B br_0_5:B bl_0_6:B br_0_6:B bl_0_7:B br_0_7:B bl_0_8:B br_0_8:B bl_0_9:B br_0_9:B bl_0_10:B br_0_10:B bl_0_11:B br_0_11:B bl_0_12:B br_0_12:B bl_0_13:B br_0_13:B bl_0_14:B br_0_14:B bl_0_15:B br_0_15:B bl_0_16:B br_0_16:B bl_0_17:B br_0_17:B bl_0_18:B br_0_18:B bl_0_19:B br_0_19:B bl_0_20:B br_0_20:B bl_0_21:B br_0_21:B bl_0_22:B br_0_22:B bl_0_23:B br_0_23:B bl_0_24:B br_0_24:B bl_0_25:B br_0_25:B bl_0_26:B br_0_26:B bl_0_27:B br_0_27:B bl_0_28:B br_0_28:B bl_0_29:B br_0_29:B bl_0_30:B br_0_30:B bl_0_31:B br_0_31:B bl_0_32:B br_0_32:B bl_0_33:B br_0_33:B bl_0_34:B br_0_34:B bl_0_35:B br_0_35:B bl_0_36:B br_0_36:B bl_0_37:B br_0_37:B bl_0_38:B br_0_38:B bl_0_39:B br_0_39:B bl_0_40:B br_0_40:B bl_0_41:B br_0_41:B bl_0_42:B br_0_42:B bl_0_43:B br_0_43:B bl_0_44:B br_0_44:B bl_0_45:B br_0_45:B bl_0_46:B br_0_46:B bl_0_47:B br_0_47:B bl_0_48:B br_0_48:B bl_0_49:B br_0_49:B bl_0_50:B br_0_50:B bl_0_51:B br_0_51:B bl_0_52:B br_0_52:B bl_0_53:B br_0_53:B bl_0_54:B br_0_54:B bl_0_55:B br_0_55:B bl_0_56:B br_0_56:B bl_0_57:B br_0_57:B bl_0_58:B br_0_58:B bl_0_59:B br_0_59:B bl_0_60:B br_0_60:B bl_0_61:B br_0_61:B bl_0_62:B br_0_62:B bl_0_63:B br_0_63:B bl_0_64:B br_0_64:B bl_0_65:B br_0_65:B bl_0_66:B br_0_66:B bl_0_67:B br_0_67:B bl_0_68:B br_0_68:B bl_0_69:B br_0_69:B bl_0_70:B br_0_70:B bl_0_71:B br_0_71:B bl_0_72:B br_0_72:B bl_0_73:B br_0_73:B bl_0_74:B br_0_74:B bl_0_75:B br_0_75:B bl_0_76:B br_0_76:B bl_0_77:B br_0_77:B bl_0_78:B br_0_78:B bl_0_79:B br_0_79:B bl_0_80:B br_0_80:B bl_0_81:B br_0_81:B bl_0_82:B br_0_82:B bl_0_83:B br_0_83:B bl_0_84:B br_0_84:B bl_0_85:B br_0_85:B bl_0_86:B br_0_86:B bl_0_87:B br_0_87:B bl_0_88:B br_0_88:B bl_0_89:B br_0_89:B bl_0_90:B br_0_90:B bl_0_91:B br_0_91:B bl_0_92:B br_0_92:B bl_0_93:B br_0_93:B bl_0_94:B br_0_94:B bl_0_95:B br_0_95:B bl_0_96:B br_0_96:B bl_0_97:B br_0_97:B bl_0_98:B br_0_98:B bl_0_99:B br_0_99:B bl_0_100:B br_0_100:B bl_0_101:B br_0_101:B bl_0_102:B br_0_102:B bl_0_103:B br_0_103:B bl_0_104:B br_0_104:B bl_0_105:B br_0_105:B bl_0_106:B br_0_106:B bl_0_107:B br_0_107:B bl_0_108:B br_0_108:B bl_0_109:B br_0_109:B bl_0_110:B br_0_110:B bl_0_111:B br_0_111:B bl_0_112:B br_0_112:B bl_0_113:B br_0_113:B bl_0_114:B br_0_114:B bl_0_115:B br_0_115:B bl_0_116:B br_0_116:B bl_0_117:B br_0_117:B bl_0_118:B br_0_118:B bl_0_119:B br_0_119:B bl_0_120:B br_0_120:B bl_0_121:B br_0_121:B bl_0_122:B br_0_122:B bl_0_123:B br_0_123:B bl_0_124:B br_0_124:B bl_0_125:B br_0_125:B bl_0_126:B br_0_126:B bl_0_127:B br_0_127:B wl_0_0:I vdd:B gnd:B
* INOUT : bl_0_0 
* INOUT : br_0_0 
* INOUT : bl_0_1 
* INOUT : br_0_1 
* INOUT : bl_0_2 
* INOUT : br_0_2 
* INOUT : bl_0_3 
* INOUT : br_0_3 
* INOUT : bl_0_4 
* INOUT : br_0_4 
* INOUT : bl_0_5 
* INOUT : br_0_5 
* INOUT : bl_0_6 
* INOUT : br_0_6 
* INOUT : bl_0_7 
* INOUT : br_0_7 
* INOUT : bl_0_8 
* INOUT : br_0_8 
* INOUT : bl_0_9 
* INOUT : br_0_9 
* INOUT : bl_0_10 
* INOUT : br_0_10 
* INOUT : bl_0_11 
* INOUT : br_0_11 
* INOUT : bl_0_12 
* INOUT : br_0_12 
* INOUT : bl_0_13 
* INOUT : br_0_13 
* INOUT : bl_0_14 
* INOUT : br_0_14 
* INOUT : bl_0_15 
* INOUT : br_0_15 
* INOUT : bl_0_16 
* INOUT : br_0_16 
* INOUT : bl_0_17 
* INOUT : br_0_17 
* INOUT : bl_0_18 
* INOUT : br_0_18 
* INOUT : bl_0_19 
* INOUT : br_0_19 
* INOUT : bl_0_20 
* INOUT : br_0_20 
* INOUT : bl_0_21 
* INOUT : br_0_21 
* INOUT : bl_0_22 
* INOUT : br_0_22 
* INOUT : bl_0_23 
* INOUT : br_0_23 
* INOUT : bl_0_24 
* INOUT : br_0_24 
* INOUT : bl_0_25 
* INOUT : br_0_25 
* INOUT : bl_0_26 
* INOUT : br_0_26 
* INOUT : bl_0_27 
* INOUT : br_0_27 
* INOUT : bl_0_28 
* INOUT : br_0_28 
* INOUT : bl_0_29 
* INOUT : br_0_29 
* INOUT : bl_0_30 
* INOUT : br_0_30 
* INOUT : bl_0_31 
* INOUT : br_0_31 
* INOUT : bl_0_32 
* INOUT : br_0_32 
* INOUT : bl_0_33 
* INOUT : br_0_33 
* INOUT : bl_0_34 
* INOUT : br_0_34 
* INOUT : bl_0_35 
* INOUT : br_0_35 
* INOUT : bl_0_36 
* INOUT : br_0_36 
* INOUT : bl_0_37 
* INOUT : br_0_37 
* INOUT : bl_0_38 
* INOUT : br_0_38 
* INOUT : bl_0_39 
* INOUT : br_0_39 
* INOUT : bl_0_40 
* INOUT : br_0_40 
* INOUT : bl_0_41 
* INOUT : br_0_41 
* INOUT : bl_0_42 
* INOUT : br_0_42 
* INOUT : bl_0_43 
* INOUT : br_0_43 
* INOUT : bl_0_44 
* INOUT : br_0_44 
* INOUT : bl_0_45 
* INOUT : br_0_45 
* INOUT : bl_0_46 
* INOUT : br_0_46 
* INOUT : bl_0_47 
* INOUT : br_0_47 
* INOUT : bl_0_48 
* INOUT : br_0_48 
* INOUT : bl_0_49 
* INOUT : br_0_49 
* INOUT : bl_0_50 
* INOUT : br_0_50 
* INOUT : bl_0_51 
* INOUT : br_0_51 
* INOUT : bl_0_52 
* INOUT : br_0_52 
* INOUT : bl_0_53 
* INOUT : br_0_53 
* INOUT : bl_0_54 
* INOUT : br_0_54 
* INOUT : bl_0_55 
* INOUT : br_0_55 
* INOUT : bl_0_56 
* INOUT : br_0_56 
* INOUT : bl_0_57 
* INOUT : br_0_57 
* INOUT : bl_0_58 
* INOUT : br_0_58 
* INOUT : bl_0_59 
* INOUT : br_0_59 
* INOUT : bl_0_60 
* INOUT : br_0_60 
* INOUT : bl_0_61 
* INOUT : br_0_61 
* INOUT : bl_0_62 
* INOUT : br_0_62 
* INOUT : bl_0_63 
* INOUT : br_0_63 
* INOUT : bl_0_64 
* INOUT : br_0_64 
* INOUT : bl_0_65 
* INOUT : br_0_65 
* INOUT : bl_0_66 
* INOUT : br_0_66 
* INOUT : bl_0_67 
* INOUT : br_0_67 
* INOUT : bl_0_68 
* INOUT : br_0_68 
* INOUT : bl_0_69 
* INOUT : br_0_69 
* INOUT : bl_0_70 
* INOUT : br_0_70 
* INOUT : bl_0_71 
* INOUT : br_0_71 
* INOUT : bl_0_72 
* INOUT : br_0_72 
* INOUT : bl_0_73 
* INOUT : br_0_73 
* INOUT : bl_0_74 
* INOUT : br_0_74 
* INOUT : bl_0_75 
* INOUT : br_0_75 
* INOUT : bl_0_76 
* INOUT : br_0_76 
* INOUT : bl_0_77 
* INOUT : br_0_77 
* INOUT : bl_0_78 
* INOUT : br_0_78 
* INOUT : bl_0_79 
* INOUT : br_0_79 
* INOUT : bl_0_80 
* INOUT : br_0_80 
* INOUT : bl_0_81 
* INOUT : br_0_81 
* INOUT : bl_0_82 
* INOUT : br_0_82 
* INOUT : bl_0_83 
* INOUT : br_0_83 
* INOUT : bl_0_84 
* INOUT : br_0_84 
* INOUT : bl_0_85 
* INOUT : br_0_85 
* INOUT : bl_0_86 
* INOUT : br_0_86 
* INOUT : bl_0_87 
* INOUT : br_0_87 
* INOUT : bl_0_88 
* INOUT : br_0_88 
* INOUT : bl_0_89 
* INOUT : br_0_89 
* INOUT : bl_0_90 
* INOUT : br_0_90 
* INOUT : bl_0_91 
* INOUT : br_0_91 
* INOUT : bl_0_92 
* INOUT : br_0_92 
* INOUT : bl_0_93 
* INOUT : br_0_93 
* INOUT : bl_0_94 
* INOUT : br_0_94 
* INOUT : bl_0_95 
* INOUT : br_0_95 
* INOUT : bl_0_96 
* INOUT : br_0_96 
* INOUT : bl_0_97 
* INOUT : br_0_97 
* INOUT : bl_0_98 
* INOUT : br_0_98 
* INOUT : bl_0_99 
* INOUT : br_0_99 
* INOUT : bl_0_100 
* INOUT : br_0_100 
* INOUT : bl_0_101 
* INOUT : br_0_101 
* INOUT : bl_0_102 
* INOUT : br_0_102 
* INOUT : bl_0_103 
* INOUT : br_0_103 
* INOUT : bl_0_104 
* INOUT : br_0_104 
* INOUT : bl_0_105 
* INOUT : br_0_105 
* INOUT : bl_0_106 
* INOUT : br_0_106 
* INOUT : bl_0_107 
* INOUT : br_0_107 
* INOUT : bl_0_108 
* INOUT : br_0_108 
* INOUT : bl_0_109 
* INOUT : br_0_109 
* INOUT : bl_0_110 
* INOUT : br_0_110 
* INOUT : bl_0_111 
* INOUT : br_0_111 
* INOUT : bl_0_112 
* INOUT : br_0_112 
* INOUT : bl_0_113 
* INOUT : br_0_113 
* INOUT : bl_0_114 
* INOUT : br_0_114 
* INOUT : bl_0_115 
* INOUT : br_0_115 
* INOUT : bl_0_116 
* INOUT : br_0_116 
* INOUT : bl_0_117 
* INOUT : br_0_117 
* INOUT : bl_0_118 
* INOUT : br_0_118 
* INOUT : bl_0_119 
* INOUT : br_0_119 
* INOUT : bl_0_120 
* INOUT : br_0_120 
* INOUT : bl_0_121 
* INOUT : br_0_121 
* INOUT : bl_0_122 
* INOUT : br_0_122 
* INOUT : bl_0_123 
* INOUT : br_0_123 
* INOUT : bl_0_124 
* INOUT : br_0_124 
* INOUT : bl_0_125 
* INOUT : br_0_125 
* INOUT : bl_0_126 
* INOUT : br_0_126 
* INOUT : bl_0_127 
* INOUT : br_0_127 
* INPUT : wl_0_0 
* POWER : vdd 
* GROUND: gnd 
Xbit_r0_c0 bl_0_0 br_0_0 wl_0_0 vdd gnd dummy_cell_1rw
Xbit_r0_c1 bl_0_1 br_0_1 wl_0_0 vdd gnd dummy_cell_1rw
Xbit_r0_c2 bl_0_2 br_0_2 wl_0_0 vdd gnd dummy_cell_1rw
Xbit_r0_c3 bl_0_3 br_0_3 wl_0_0 vdd gnd dummy_cell_1rw
Xbit_r0_c4 bl_0_4 br_0_4 wl_0_0 vdd gnd dummy_cell_1rw
Xbit_r0_c5 bl_0_5 br_0_5 wl_0_0 vdd gnd dummy_cell_1rw
Xbit_r0_c6 bl_0_6 br_0_6 wl_0_0 vdd gnd dummy_cell_1rw
Xbit_r0_c7 bl_0_7 br_0_7 wl_0_0 vdd gnd dummy_cell_1rw
Xbit_r0_c8 bl_0_8 br_0_8 wl_0_0 vdd gnd dummy_cell_1rw
Xbit_r0_c9 bl_0_9 br_0_9 wl_0_0 vdd gnd dummy_cell_1rw
Xbit_r0_c10 bl_0_10 br_0_10 wl_0_0 vdd gnd dummy_cell_1rw
Xbit_r0_c11 bl_0_11 br_0_11 wl_0_0 vdd gnd dummy_cell_1rw
Xbit_r0_c12 bl_0_12 br_0_12 wl_0_0 vdd gnd dummy_cell_1rw
Xbit_r0_c13 bl_0_13 br_0_13 wl_0_0 vdd gnd dummy_cell_1rw
Xbit_r0_c14 bl_0_14 br_0_14 wl_0_0 vdd gnd dummy_cell_1rw
Xbit_r0_c15 bl_0_15 br_0_15 wl_0_0 vdd gnd dummy_cell_1rw
Xbit_r0_c16 bl_0_16 br_0_16 wl_0_0 vdd gnd dummy_cell_1rw
Xbit_r0_c17 bl_0_17 br_0_17 wl_0_0 vdd gnd dummy_cell_1rw
Xbit_r0_c18 bl_0_18 br_0_18 wl_0_0 vdd gnd dummy_cell_1rw
Xbit_r0_c19 bl_0_19 br_0_19 wl_0_0 vdd gnd dummy_cell_1rw
Xbit_r0_c20 bl_0_20 br_0_20 wl_0_0 vdd gnd dummy_cell_1rw
Xbit_r0_c21 bl_0_21 br_0_21 wl_0_0 vdd gnd dummy_cell_1rw
Xbit_r0_c22 bl_0_22 br_0_22 wl_0_0 vdd gnd dummy_cell_1rw
Xbit_r0_c23 bl_0_23 br_0_23 wl_0_0 vdd gnd dummy_cell_1rw
Xbit_r0_c24 bl_0_24 br_0_24 wl_0_0 vdd gnd dummy_cell_1rw
Xbit_r0_c25 bl_0_25 br_0_25 wl_0_0 vdd gnd dummy_cell_1rw
Xbit_r0_c26 bl_0_26 br_0_26 wl_0_0 vdd gnd dummy_cell_1rw
Xbit_r0_c27 bl_0_27 br_0_27 wl_0_0 vdd gnd dummy_cell_1rw
Xbit_r0_c28 bl_0_28 br_0_28 wl_0_0 vdd gnd dummy_cell_1rw
Xbit_r0_c29 bl_0_29 br_0_29 wl_0_0 vdd gnd dummy_cell_1rw
Xbit_r0_c30 bl_0_30 br_0_30 wl_0_0 vdd gnd dummy_cell_1rw
Xbit_r0_c31 bl_0_31 br_0_31 wl_0_0 vdd gnd dummy_cell_1rw
Xbit_r0_c32 bl_0_32 br_0_32 wl_0_0 vdd gnd dummy_cell_1rw
Xbit_r0_c33 bl_0_33 br_0_33 wl_0_0 vdd gnd dummy_cell_1rw
Xbit_r0_c34 bl_0_34 br_0_34 wl_0_0 vdd gnd dummy_cell_1rw
Xbit_r0_c35 bl_0_35 br_0_35 wl_0_0 vdd gnd dummy_cell_1rw